**************************************************
* OpenRAM generated memory.
* Words: 64
* Data bits: 512
* Banks: 1
* Column mux: 1:1
* Trimmed: False
* LVS: True
**************************************************

.SUBCKT dummy_cell_2rw bl0 br0 bl1 br1 wl0 wl1 vdd gnd
MM9 RA_to_R_right wl1 br1_noconn gnd NMOS_VTG W=180.0n L=50n m=1
MM8 RA_to_R_right Q gnd gnd NMOS_VTG W=180.0n L=50n m=1
MM7 RA_to_R_left Q_bar gnd gnd NMOS_VTG W=180.0n L=50n m=1
MM6 RA_to_R_left wl1 bl1_noconn gnd NMOS_VTG W=180.0n L=50n m=1
MM5 Q wl0 bl0_noconn gnd NMOS_VTG W=135.00n L=50n m=1
MM4 Q_bar wl0 br0_noconn gnd NMOS_VTG W=135.00n L=50n m=1
MM1 Q Q_bar gnd gnd NMOS_VTG W=205.0n L=50n m=1
MM0 Q_bar Q gnd gnd NMOS_VTG W=205.0n L=50n m=1
MM3 Q Q_bar vdd vdd PMOS_VTG W=90n L=50n m=1
MM2 Q_bar Q vdd vdd PMOS_VTG W=90n L=50n m=1
.ENDS


.SUBCKT freepdk45_sram_1w1r_64x512_dummy_array_1
+ bl_0_0 bl_1_0 br_0_0 br_1_0 bl_0_1 bl_1_1 br_0_1 br_1_1 bl_0_2 bl_1_2
+ br_0_2 br_1_2 bl_0_3 bl_1_3 br_0_3 br_1_3 bl_0_4 bl_1_4 br_0_4 br_1_4
+ bl_0_5 bl_1_5 br_0_5 br_1_5 bl_0_6 bl_1_6 br_0_6 br_1_6 bl_0_7 bl_1_7
+ br_0_7 br_1_7 bl_0_8 bl_1_8 br_0_8 br_1_8 bl_0_9 bl_1_9 br_0_9 br_1_9
+ bl_0_10 bl_1_10 br_0_10 br_1_10 bl_0_11 bl_1_11 br_0_11 br_1_11
+ bl_0_12 bl_1_12 br_0_12 br_1_12 bl_0_13 bl_1_13 br_0_13 br_1_13
+ bl_0_14 bl_1_14 br_0_14 br_1_14 bl_0_15 bl_1_15 br_0_15 br_1_15
+ bl_0_16 bl_1_16 br_0_16 br_1_16 bl_0_17 bl_1_17 br_0_17 br_1_17
+ bl_0_18 bl_1_18 br_0_18 br_1_18 bl_0_19 bl_1_19 br_0_19 br_1_19
+ bl_0_20 bl_1_20 br_0_20 br_1_20 bl_0_21 bl_1_21 br_0_21 br_1_21
+ bl_0_22 bl_1_22 br_0_22 br_1_22 bl_0_23 bl_1_23 br_0_23 br_1_23
+ bl_0_24 bl_1_24 br_0_24 br_1_24 bl_0_25 bl_1_25 br_0_25 br_1_25
+ bl_0_26 bl_1_26 br_0_26 br_1_26 bl_0_27 bl_1_27 br_0_27 br_1_27
+ bl_0_28 bl_1_28 br_0_28 br_1_28 bl_0_29 bl_1_29 br_0_29 br_1_29
+ bl_0_30 bl_1_30 br_0_30 br_1_30 bl_0_31 bl_1_31 br_0_31 br_1_31
+ bl_0_32 bl_1_32 br_0_32 br_1_32 bl_0_33 bl_1_33 br_0_33 br_1_33
+ bl_0_34 bl_1_34 br_0_34 br_1_34 bl_0_35 bl_1_35 br_0_35 br_1_35
+ bl_0_36 bl_1_36 br_0_36 br_1_36 bl_0_37 bl_1_37 br_0_37 br_1_37
+ bl_0_38 bl_1_38 br_0_38 br_1_38 bl_0_39 bl_1_39 br_0_39 br_1_39
+ bl_0_40 bl_1_40 br_0_40 br_1_40 bl_0_41 bl_1_41 br_0_41 br_1_41
+ bl_0_42 bl_1_42 br_0_42 br_1_42 bl_0_43 bl_1_43 br_0_43 br_1_43
+ bl_0_44 bl_1_44 br_0_44 br_1_44 bl_0_45 bl_1_45 br_0_45 br_1_45
+ bl_0_46 bl_1_46 br_0_46 br_1_46 bl_0_47 bl_1_47 br_0_47 br_1_47
+ bl_0_48 bl_1_48 br_0_48 br_1_48 bl_0_49 bl_1_49 br_0_49 br_1_49
+ bl_0_50 bl_1_50 br_0_50 br_1_50 bl_0_51 bl_1_51 br_0_51 br_1_51
+ bl_0_52 bl_1_52 br_0_52 br_1_52 bl_0_53 bl_1_53 br_0_53 br_1_53
+ bl_0_54 bl_1_54 br_0_54 br_1_54 bl_0_55 bl_1_55 br_0_55 br_1_55
+ bl_0_56 bl_1_56 br_0_56 br_1_56 bl_0_57 bl_1_57 br_0_57 br_1_57
+ bl_0_58 bl_1_58 br_0_58 br_1_58 bl_0_59 bl_1_59 br_0_59 br_1_59
+ bl_0_60 bl_1_60 br_0_60 br_1_60 bl_0_61 bl_1_61 br_0_61 br_1_61
+ bl_0_62 bl_1_62 br_0_62 br_1_62 bl_0_63 bl_1_63 br_0_63 br_1_63
+ bl_0_64 bl_1_64 br_0_64 br_1_64 bl_0_65 bl_1_65 br_0_65 br_1_65
+ bl_0_66 bl_1_66 br_0_66 br_1_66 bl_0_67 bl_1_67 br_0_67 br_1_67
+ bl_0_68 bl_1_68 br_0_68 br_1_68 bl_0_69 bl_1_69 br_0_69 br_1_69
+ bl_0_70 bl_1_70 br_0_70 br_1_70 bl_0_71 bl_1_71 br_0_71 br_1_71
+ bl_0_72 bl_1_72 br_0_72 br_1_72 bl_0_73 bl_1_73 br_0_73 br_1_73
+ bl_0_74 bl_1_74 br_0_74 br_1_74 bl_0_75 bl_1_75 br_0_75 br_1_75
+ bl_0_76 bl_1_76 br_0_76 br_1_76 bl_0_77 bl_1_77 br_0_77 br_1_77
+ bl_0_78 bl_1_78 br_0_78 br_1_78 bl_0_79 bl_1_79 br_0_79 br_1_79
+ bl_0_80 bl_1_80 br_0_80 br_1_80 bl_0_81 bl_1_81 br_0_81 br_1_81
+ bl_0_82 bl_1_82 br_0_82 br_1_82 bl_0_83 bl_1_83 br_0_83 br_1_83
+ bl_0_84 bl_1_84 br_0_84 br_1_84 bl_0_85 bl_1_85 br_0_85 br_1_85
+ bl_0_86 bl_1_86 br_0_86 br_1_86 bl_0_87 bl_1_87 br_0_87 br_1_87
+ bl_0_88 bl_1_88 br_0_88 br_1_88 bl_0_89 bl_1_89 br_0_89 br_1_89
+ bl_0_90 bl_1_90 br_0_90 br_1_90 bl_0_91 bl_1_91 br_0_91 br_1_91
+ bl_0_92 bl_1_92 br_0_92 br_1_92 bl_0_93 bl_1_93 br_0_93 br_1_93
+ bl_0_94 bl_1_94 br_0_94 br_1_94 bl_0_95 bl_1_95 br_0_95 br_1_95
+ bl_0_96 bl_1_96 br_0_96 br_1_96 bl_0_97 bl_1_97 br_0_97 br_1_97
+ bl_0_98 bl_1_98 br_0_98 br_1_98 bl_0_99 bl_1_99 br_0_99 br_1_99
+ bl_0_100 bl_1_100 br_0_100 br_1_100 bl_0_101 bl_1_101 br_0_101
+ br_1_101 bl_0_102 bl_1_102 br_0_102 br_1_102 bl_0_103 bl_1_103
+ br_0_103 br_1_103 bl_0_104 bl_1_104 br_0_104 br_1_104 bl_0_105
+ bl_1_105 br_0_105 br_1_105 bl_0_106 bl_1_106 br_0_106 br_1_106
+ bl_0_107 bl_1_107 br_0_107 br_1_107 bl_0_108 bl_1_108 br_0_108
+ br_1_108 bl_0_109 bl_1_109 br_0_109 br_1_109 bl_0_110 bl_1_110
+ br_0_110 br_1_110 bl_0_111 bl_1_111 br_0_111 br_1_111 bl_0_112
+ bl_1_112 br_0_112 br_1_112 bl_0_113 bl_1_113 br_0_113 br_1_113
+ bl_0_114 bl_1_114 br_0_114 br_1_114 bl_0_115 bl_1_115 br_0_115
+ br_1_115 bl_0_116 bl_1_116 br_0_116 br_1_116 bl_0_117 bl_1_117
+ br_0_117 br_1_117 bl_0_118 bl_1_118 br_0_118 br_1_118 bl_0_119
+ bl_1_119 br_0_119 br_1_119 bl_0_120 bl_1_120 br_0_120 br_1_120
+ bl_0_121 bl_1_121 br_0_121 br_1_121 bl_0_122 bl_1_122 br_0_122
+ br_1_122 bl_0_123 bl_1_123 br_0_123 br_1_123 bl_0_124 bl_1_124
+ br_0_124 br_1_124 bl_0_125 bl_1_125 br_0_125 br_1_125 bl_0_126
+ bl_1_126 br_0_126 br_1_126 bl_0_127 bl_1_127 br_0_127 br_1_127
+ bl_0_128 bl_1_128 br_0_128 br_1_128 bl_0_129 bl_1_129 br_0_129
+ br_1_129 bl_0_130 bl_1_130 br_0_130 br_1_130 bl_0_131 bl_1_131
+ br_0_131 br_1_131 bl_0_132 bl_1_132 br_0_132 br_1_132 bl_0_133
+ bl_1_133 br_0_133 br_1_133 bl_0_134 bl_1_134 br_0_134 br_1_134
+ bl_0_135 bl_1_135 br_0_135 br_1_135 bl_0_136 bl_1_136 br_0_136
+ br_1_136 bl_0_137 bl_1_137 br_0_137 br_1_137 bl_0_138 bl_1_138
+ br_0_138 br_1_138 bl_0_139 bl_1_139 br_0_139 br_1_139 bl_0_140
+ bl_1_140 br_0_140 br_1_140 bl_0_141 bl_1_141 br_0_141 br_1_141
+ bl_0_142 bl_1_142 br_0_142 br_1_142 bl_0_143 bl_1_143 br_0_143
+ br_1_143 bl_0_144 bl_1_144 br_0_144 br_1_144 bl_0_145 bl_1_145
+ br_0_145 br_1_145 bl_0_146 bl_1_146 br_0_146 br_1_146 bl_0_147
+ bl_1_147 br_0_147 br_1_147 bl_0_148 bl_1_148 br_0_148 br_1_148
+ bl_0_149 bl_1_149 br_0_149 br_1_149 bl_0_150 bl_1_150 br_0_150
+ br_1_150 bl_0_151 bl_1_151 br_0_151 br_1_151 bl_0_152 bl_1_152
+ br_0_152 br_1_152 bl_0_153 bl_1_153 br_0_153 br_1_153 bl_0_154
+ bl_1_154 br_0_154 br_1_154 bl_0_155 bl_1_155 br_0_155 br_1_155
+ bl_0_156 bl_1_156 br_0_156 br_1_156 bl_0_157 bl_1_157 br_0_157
+ br_1_157 bl_0_158 bl_1_158 br_0_158 br_1_158 bl_0_159 bl_1_159
+ br_0_159 br_1_159 bl_0_160 bl_1_160 br_0_160 br_1_160 bl_0_161
+ bl_1_161 br_0_161 br_1_161 bl_0_162 bl_1_162 br_0_162 br_1_162
+ bl_0_163 bl_1_163 br_0_163 br_1_163 bl_0_164 bl_1_164 br_0_164
+ br_1_164 bl_0_165 bl_1_165 br_0_165 br_1_165 bl_0_166 bl_1_166
+ br_0_166 br_1_166 bl_0_167 bl_1_167 br_0_167 br_1_167 bl_0_168
+ bl_1_168 br_0_168 br_1_168 bl_0_169 bl_1_169 br_0_169 br_1_169
+ bl_0_170 bl_1_170 br_0_170 br_1_170 bl_0_171 bl_1_171 br_0_171
+ br_1_171 bl_0_172 bl_1_172 br_0_172 br_1_172 bl_0_173 bl_1_173
+ br_0_173 br_1_173 bl_0_174 bl_1_174 br_0_174 br_1_174 bl_0_175
+ bl_1_175 br_0_175 br_1_175 bl_0_176 bl_1_176 br_0_176 br_1_176
+ bl_0_177 bl_1_177 br_0_177 br_1_177 bl_0_178 bl_1_178 br_0_178
+ br_1_178 bl_0_179 bl_1_179 br_0_179 br_1_179 bl_0_180 bl_1_180
+ br_0_180 br_1_180 bl_0_181 bl_1_181 br_0_181 br_1_181 bl_0_182
+ bl_1_182 br_0_182 br_1_182 bl_0_183 bl_1_183 br_0_183 br_1_183
+ bl_0_184 bl_1_184 br_0_184 br_1_184 bl_0_185 bl_1_185 br_0_185
+ br_1_185 bl_0_186 bl_1_186 br_0_186 br_1_186 bl_0_187 bl_1_187
+ br_0_187 br_1_187 bl_0_188 bl_1_188 br_0_188 br_1_188 bl_0_189
+ bl_1_189 br_0_189 br_1_189 bl_0_190 bl_1_190 br_0_190 br_1_190
+ bl_0_191 bl_1_191 br_0_191 br_1_191 bl_0_192 bl_1_192 br_0_192
+ br_1_192 bl_0_193 bl_1_193 br_0_193 br_1_193 bl_0_194 bl_1_194
+ br_0_194 br_1_194 bl_0_195 bl_1_195 br_0_195 br_1_195 bl_0_196
+ bl_1_196 br_0_196 br_1_196 bl_0_197 bl_1_197 br_0_197 br_1_197
+ bl_0_198 bl_1_198 br_0_198 br_1_198 bl_0_199 bl_1_199 br_0_199
+ br_1_199 bl_0_200 bl_1_200 br_0_200 br_1_200 bl_0_201 bl_1_201
+ br_0_201 br_1_201 bl_0_202 bl_1_202 br_0_202 br_1_202 bl_0_203
+ bl_1_203 br_0_203 br_1_203 bl_0_204 bl_1_204 br_0_204 br_1_204
+ bl_0_205 bl_1_205 br_0_205 br_1_205 bl_0_206 bl_1_206 br_0_206
+ br_1_206 bl_0_207 bl_1_207 br_0_207 br_1_207 bl_0_208 bl_1_208
+ br_0_208 br_1_208 bl_0_209 bl_1_209 br_0_209 br_1_209 bl_0_210
+ bl_1_210 br_0_210 br_1_210 bl_0_211 bl_1_211 br_0_211 br_1_211
+ bl_0_212 bl_1_212 br_0_212 br_1_212 bl_0_213 bl_1_213 br_0_213
+ br_1_213 bl_0_214 bl_1_214 br_0_214 br_1_214 bl_0_215 bl_1_215
+ br_0_215 br_1_215 bl_0_216 bl_1_216 br_0_216 br_1_216 bl_0_217
+ bl_1_217 br_0_217 br_1_217 bl_0_218 bl_1_218 br_0_218 br_1_218
+ bl_0_219 bl_1_219 br_0_219 br_1_219 bl_0_220 bl_1_220 br_0_220
+ br_1_220 bl_0_221 bl_1_221 br_0_221 br_1_221 bl_0_222 bl_1_222
+ br_0_222 br_1_222 bl_0_223 bl_1_223 br_0_223 br_1_223 bl_0_224
+ bl_1_224 br_0_224 br_1_224 bl_0_225 bl_1_225 br_0_225 br_1_225
+ bl_0_226 bl_1_226 br_0_226 br_1_226 bl_0_227 bl_1_227 br_0_227
+ br_1_227 bl_0_228 bl_1_228 br_0_228 br_1_228 bl_0_229 bl_1_229
+ br_0_229 br_1_229 bl_0_230 bl_1_230 br_0_230 br_1_230 bl_0_231
+ bl_1_231 br_0_231 br_1_231 bl_0_232 bl_1_232 br_0_232 br_1_232
+ bl_0_233 bl_1_233 br_0_233 br_1_233 bl_0_234 bl_1_234 br_0_234
+ br_1_234 bl_0_235 bl_1_235 br_0_235 br_1_235 bl_0_236 bl_1_236
+ br_0_236 br_1_236 bl_0_237 bl_1_237 br_0_237 br_1_237 bl_0_238
+ bl_1_238 br_0_238 br_1_238 bl_0_239 bl_1_239 br_0_239 br_1_239
+ bl_0_240 bl_1_240 br_0_240 br_1_240 bl_0_241 bl_1_241 br_0_241
+ br_1_241 bl_0_242 bl_1_242 br_0_242 br_1_242 bl_0_243 bl_1_243
+ br_0_243 br_1_243 bl_0_244 bl_1_244 br_0_244 br_1_244 bl_0_245
+ bl_1_245 br_0_245 br_1_245 bl_0_246 bl_1_246 br_0_246 br_1_246
+ bl_0_247 bl_1_247 br_0_247 br_1_247 bl_0_248 bl_1_248 br_0_248
+ br_1_248 bl_0_249 bl_1_249 br_0_249 br_1_249 bl_0_250 bl_1_250
+ br_0_250 br_1_250 bl_0_251 bl_1_251 br_0_251 br_1_251 bl_0_252
+ bl_1_252 br_0_252 br_1_252 bl_0_253 bl_1_253 br_0_253 br_1_253
+ bl_0_254 bl_1_254 br_0_254 br_1_254 bl_0_255 bl_1_255 br_0_255
+ br_1_255 bl_0_256 bl_1_256 br_0_256 br_1_256 bl_0_257 bl_1_257
+ br_0_257 br_1_257 bl_0_258 bl_1_258 br_0_258 br_1_258 bl_0_259
+ bl_1_259 br_0_259 br_1_259 bl_0_260 bl_1_260 br_0_260 br_1_260
+ bl_0_261 bl_1_261 br_0_261 br_1_261 bl_0_262 bl_1_262 br_0_262
+ br_1_262 bl_0_263 bl_1_263 br_0_263 br_1_263 bl_0_264 bl_1_264
+ br_0_264 br_1_264 bl_0_265 bl_1_265 br_0_265 br_1_265 bl_0_266
+ bl_1_266 br_0_266 br_1_266 bl_0_267 bl_1_267 br_0_267 br_1_267
+ bl_0_268 bl_1_268 br_0_268 br_1_268 bl_0_269 bl_1_269 br_0_269
+ br_1_269 bl_0_270 bl_1_270 br_0_270 br_1_270 bl_0_271 bl_1_271
+ br_0_271 br_1_271 bl_0_272 bl_1_272 br_0_272 br_1_272 bl_0_273
+ bl_1_273 br_0_273 br_1_273 bl_0_274 bl_1_274 br_0_274 br_1_274
+ bl_0_275 bl_1_275 br_0_275 br_1_275 bl_0_276 bl_1_276 br_0_276
+ br_1_276 bl_0_277 bl_1_277 br_0_277 br_1_277 bl_0_278 bl_1_278
+ br_0_278 br_1_278 bl_0_279 bl_1_279 br_0_279 br_1_279 bl_0_280
+ bl_1_280 br_0_280 br_1_280 bl_0_281 bl_1_281 br_0_281 br_1_281
+ bl_0_282 bl_1_282 br_0_282 br_1_282 bl_0_283 bl_1_283 br_0_283
+ br_1_283 bl_0_284 bl_1_284 br_0_284 br_1_284 bl_0_285 bl_1_285
+ br_0_285 br_1_285 bl_0_286 bl_1_286 br_0_286 br_1_286 bl_0_287
+ bl_1_287 br_0_287 br_1_287 bl_0_288 bl_1_288 br_0_288 br_1_288
+ bl_0_289 bl_1_289 br_0_289 br_1_289 bl_0_290 bl_1_290 br_0_290
+ br_1_290 bl_0_291 bl_1_291 br_0_291 br_1_291 bl_0_292 bl_1_292
+ br_0_292 br_1_292 bl_0_293 bl_1_293 br_0_293 br_1_293 bl_0_294
+ bl_1_294 br_0_294 br_1_294 bl_0_295 bl_1_295 br_0_295 br_1_295
+ bl_0_296 bl_1_296 br_0_296 br_1_296 bl_0_297 bl_1_297 br_0_297
+ br_1_297 bl_0_298 bl_1_298 br_0_298 br_1_298 bl_0_299 bl_1_299
+ br_0_299 br_1_299 bl_0_300 bl_1_300 br_0_300 br_1_300 bl_0_301
+ bl_1_301 br_0_301 br_1_301 bl_0_302 bl_1_302 br_0_302 br_1_302
+ bl_0_303 bl_1_303 br_0_303 br_1_303 bl_0_304 bl_1_304 br_0_304
+ br_1_304 bl_0_305 bl_1_305 br_0_305 br_1_305 bl_0_306 bl_1_306
+ br_0_306 br_1_306 bl_0_307 bl_1_307 br_0_307 br_1_307 bl_0_308
+ bl_1_308 br_0_308 br_1_308 bl_0_309 bl_1_309 br_0_309 br_1_309
+ bl_0_310 bl_1_310 br_0_310 br_1_310 bl_0_311 bl_1_311 br_0_311
+ br_1_311 bl_0_312 bl_1_312 br_0_312 br_1_312 bl_0_313 bl_1_313
+ br_0_313 br_1_313 bl_0_314 bl_1_314 br_0_314 br_1_314 bl_0_315
+ bl_1_315 br_0_315 br_1_315 bl_0_316 bl_1_316 br_0_316 br_1_316
+ bl_0_317 bl_1_317 br_0_317 br_1_317 bl_0_318 bl_1_318 br_0_318
+ br_1_318 bl_0_319 bl_1_319 br_0_319 br_1_319 bl_0_320 bl_1_320
+ br_0_320 br_1_320 bl_0_321 bl_1_321 br_0_321 br_1_321 bl_0_322
+ bl_1_322 br_0_322 br_1_322 bl_0_323 bl_1_323 br_0_323 br_1_323
+ bl_0_324 bl_1_324 br_0_324 br_1_324 bl_0_325 bl_1_325 br_0_325
+ br_1_325 bl_0_326 bl_1_326 br_0_326 br_1_326 bl_0_327 bl_1_327
+ br_0_327 br_1_327 bl_0_328 bl_1_328 br_0_328 br_1_328 bl_0_329
+ bl_1_329 br_0_329 br_1_329 bl_0_330 bl_1_330 br_0_330 br_1_330
+ bl_0_331 bl_1_331 br_0_331 br_1_331 bl_0_332 bl_1_332 br_0_332
+ br_1_332 bl_0_333 bl_1_333 br_0_333 br_1_333 bl_0_334 bl_1_334
+ br_0_334 br_1_334 bl_0_335 bl_1_335 br_0_335 br_1_335 bl_0_336
+ bl_1_336 br_0_336 br_1_336 bl_0_337 bl_1_337 br_0_337 br_1_337
+ bl_0_338 bl_1_338 br_0_338 br_1_338 bl_0_339 bl_1_339 br_0_339
+ br_1_339 bl_0_340 bl_1_340 br_0_340 br_1_340 bl_0_341 bl_1_341
+ br_0_341 br_1_341 bl_0_342 bl_1_342 br_0_342 br_1_342 bl_0_343
+ bl_1_343 br_0_343 br_1_343 bl_0_344 bl_1_344 br_0_344 br_1_344
+ bl_0_345 bl_1_345 br_0_345 br_1_345 bl_0_346 bl_1_346 br_0_346
+ br_1_346 bl_0_347 bl_1_347 br_0_347 br_1_347 bl_0_348 bl_1_348
+ br_0_348 br_1_348 bl_0_349 bl_1_349 br_0_349 br_1_349 bl_0_350
+ bl_1_350 br_0_350 br_1_350 bl_0_351 bl_1_351 br_0_351 br_1_351
+ bl_0_352 bl_1_352 br_0_352 br_1_352 bl_0_353 bl_1_353 br_0_353
+ br_1_353 bl_0_354 bl_1_354 br_0_354 br_1_354 bl_0_355 bl_1_355
+ br_0_355 br_1_355 bl_0_356 bl_1_356 br_0_356 br_1_356 bl_0_357
+ bl_1_357 br_0_357 br_1_357 bl_0_358 bl_1_358 br_0_358 br_1_358
+ bl_0_359 bl_1_359 br_0_359 br_1_359 bl_0_360 bl_1_360 br_0_360
+ br_1_360 bl_0_361 bl_1_361 br_0_361 br_1_361 bl_0_362 bl_1_362
+ br_0_362 br_1_362 bl_0_363 bl_1_363 br_0_363 br_1_363 bl_0_364
+ bl_1_364 br_0_364 br_1_364 bl_0_365 bl_1_365 br_0_365 br_1_365
+ bl_0_366 bl_1_366 br_0_366 br_1_366 bl_0_367 bl_1_367 br_0_367
+ br_1_367 bl_0_368 bl_1_368 br_0_368 br_1_368 bl_0_369 bl_1_369
+ br_0_369 br_1_369 bl_0_370 bl_1_370 br_0_370 br_1_370 bl_0_371
+ bl_1_371 br_0_371 br_1_371 bl_0_372 bl_1_372 br_0_372 br_1_372
+ bl_0_373 bl_1_373 br_0_373 br_1_373 bl_0_374 bl_1_374 br_0_374
+ br_1_374 bl_0_375 bl_1_375 br_0_375 br_1_375 bl_0_376 bl_1_376
+ br_0_376 br_1_376 bl_0_377 bl_1_377 br_0_377 br_1_377 bl_0_378
+ bl_1_378 br_0_378 br_1_378 bl_0_379 bl_1_379 br_0_379 br_1_379
+ bl_0_380 bl_1_380 br_0_380 br_1_380 bl_0_381 bl_1_381 br_0_381
+ br_1_381 bl_0_382 bl_1_382 br_0_382 br_1_382 bl_0_383 bl_1_383
+ br_0_383 br_1_383 bl_0_384 bl_1_384 br_0_384 br_1_384 bl_0_385
+ bl_1_385 br_0_385 br_1_385 bl_0_386 bl_1_386 br_0_386 br_1_386
+ bl_0_387 bl_1_387 br_0_387 br_1_387 bl_0_388 bl_1_388 br_0_388
+ br_1_388 bl_0_389 bl_1_389 br_0_389 br_1_389 bl_0_390 bl_1_390
+ br_0_390 br_1_390 bl_0_391 bl_1_391 br_0_391 br_1_391 bl_0_392
+ bl_1_392 br_0_392 br_1_392 bl_0_393 bl_1_393 br_0_393 br_1_393
+ bl_0_394 bl_1_394 br_0_394 br_1_394 bl_0_395 bl_1_395 br_0_395
+ br_1_395 bl_0_396 bl_1_396 br_0_396 br_1_396 bl_0_397 bl_1_397
+ br_0_397 br_1_397 bl_0_398 bl_1_398 br_0_398 br_1_398 bl_0_399
+ bl_1_399 br_0_399 br_1_399 bl_0_400 bl_1_400 br_0_400 br_1_400
+ bl_0_401 bl_1_401 br_0_401 br_1_401 bl_0_402 bl_1_402 br_0_402
+ br_1_402 bl_0_403 bl_1_403 br_0_403 br_1_403 bl_0_404 bl_1_404
+ br_0_404 br_1_404 bl_0_405 bl_1_405 br_0_405 br_1_405 bl_0_406
+ bl_1_406 br_0_406 br_1_406 bl_0_407 bl_1_407 br_0_407 br_1_407
+ bl_0_408 bl_1_408 br_0_408 br_1_408 bl_0_409 bl_1_409 br_0_409
+ br_1_409 bl_0_410 bl_1_410 br_0_410 br_1_410 bl_0_411 bl_1_411
+ br_0_411 br_1_411 bl_0_412 bl_1_412 br_0_412 br_1_412 bl_0_413
+ bl_1_413 br_0_413 br_1_413 bl_0_414 bl_1_414 br_0_414 br_1_414
+ bl_0_415 bl_1_415 br_0_415 br_1_415 bl_0_416 bl_1_416 br_0_416
+ br_1_416 bl_0_417 bl_1_417 br_0_417 br_1_417 bl_0_418 bl_1_418
+ br_0_418 br_1_418 bl_0_419 bl_1_419 br_0_419 br_1_419 bl_0_420
+ bl_1_420 br_0_420 br_1_420 bl_0_421 bl_1_421 br_0_421 br_1_421
+ bl_0_422 bl_1_422 br_0_422 br_1_422 bl_0_423 bl_1_423 br_0_423
+ br_1_423 bl_0_424 bl_1_424 br_0_424 br_1_424 bl_0_425 bl_1_425
+ br_0_425 br_1_425 bl_0_426 bl_1_426 br_0_426 br_1_426 bl_0_427
+ bl_1_427 br_0_427 br_1_427 bl_0_428 bl_1_428 br_0_428 br_1_428
+ bl_0_429 bl_1_429 br_0_429 br_1_429 bl_0_430 bl_1_430 br_0_430
+ br_1_430 bl_0_431 bl_1_431 br_0_431 br_1_431 bl_0_432 bl_1_432
+ br_0_432 br_1_432 bl_0_433 bl_1_433 br_0_433 br_1_433 bl_0_434
+ bl_1_434 br_0_434 br_1_434 bl_0_435 bl_1_435 br_0_435 br_1_435
+ bl_0_436 bl_1_436 br_0_436 br_1_436 bl_0_437 bl_1_437 br_0_437
+ br_1_437 bl_0_438 bl_1_438 br_0_438 br_1_438 bl_0_439 bl_1_439
+ br_0_439 br_1_439 bl_0_440 bl_1_440 br_0_440 br_1_440 bl_0_441
+ bl_1_441 br_0_441 br_1_441 bl_0_442 bl_1_442 br_0_442 br_1_442
+ bl_0_443 bl_1_443 br_0_443 br_1_443 bl_0_444 bl_1_444 br_0_444
+ br_1_444 bl_0_445 bl_1_445 br_0_445 br_1_445 bl_0_446 bl_1_446
+ br_0_446 br_1_446 bl_0_447 bl_1_447 br_0_447 br_1_447 bl_0_448
+ bl_1_448 br_0_448 br_1_448 bl_0_449 bl_1_449 br_0_449 br_1_449
+ bl_0_450 bl_1_450 br_0_450 br_1_450 bl_0_451 bl_1_451 br_0_451
+ br_1_451 bl_0_452 bl_1_452 br_0_452 br_1_452 bl_0_453 bl_1_453
+ br_0_453 br_1_453 bl_0_454 bl_1_454 br_0_454 br_1_454 bl_0_455
+ bl_1_455 br_0_455 br_1_455 bl_0_456 bl_1_456 br_0_456 br_1_456
+ bl_0_457 bl_1_457 br_0_457 br_1_457 bl_0_458 bl_1_458 br_0_458
+ br_1_458 bl_0_459 bl_1_459 br_0_459 br_1_459 bl_0_460 bl_1_460
+ br_0_460 br_1_460 bl_0_461 bl_1_461 br_0_461 br_1_461 bl_0_462
+ bl_1_462 br_0_462 br_1_462 bl_0_463 bl_1_463 br_0_463 br_1_463
+ bl_0_464 bl_1_464 br_0_464 br_1_464 bl_0_465 bl_1_465 br_0_465
+ br_1_465 bl_0_466 bl_1_466 br_0_466 br_1_466 bl_0_467 bl_1_467
+ br_0_467 br_1_467 bl_0_468 bl_1_468 br_0_468 br_1_468 bl_0_469
+ bl_1_469 br_0_469 br_1_469 bl_0_470 bl_1_470 br_0_470 br_1_470
+ bl_0_471 bl_1_471 br_0_471 br_1_471 bl_0_472 bl_1_472 br_0_472
+ br_1_472 bl_0_473 bl_1_473 br_0_473 br_1_473 bl_0_474 bl_1_474
+ br_0_474 br_1_474 bl_0_475 bl_1_475 br_0_475 br_1_475 bl_0_476
+ bl_1_476 br_0_476 br_1_476 bl_0_477 bl_1_477 br_0_477 br_1_477
+ bl_0_478 bl_1_478 br_0_478 br_1_478 bl_0_479 bl_1_479 br_0_479
+ br_1_479 bl_0_480 bl_1_480 br_0_480 br_1_480 bl_0_481 bl_1_481
+ br_0_481 br_1_481 bl_0_482 bl_1_482 br_0_482 br_1_482 bl_0_483
+ bl_1_483 br_0_483 br_1_483 bl_0_484 bl_1_484 br_0_484 br_1_484
+ bl_0_485 bl_1_485 br_0_485 br_1_485 bl_0_486 bl_1_486 br_0_486
+ br_1_486 bl_0_487 bl_1_487 br_0_487 br_1_487 bl_0_488 bl_1_488
+ br_0_488 br_1_488 bl_0_489 bl_1_489 br_0_489 br_1_489 bl_0_490
+ bl_1_490 br_0_490 br_1_490 bl_0_491 bl_1_491 br_0_491 br_1_491
+ bl_0_492 bl_1_492 br_0_492 br_1_492 bl_0_493 bl_1_493 br_0_493
+ br_1_493 bl_0_494 bl_1_494 br_0_494 br_1_494 bl_0_495 bl_1_495
+ br_0_495 br_1_495 bl_0_496 bl_1_496 br_0_496 br_1_496 bl_0_497
+ bl_1_497 br_0_497 br_1_497 bl_0_498 bl_1_498 br_0_498 br_1_498
+ bl_0_499 bl_1_499 br_0_499 br_1_499 bl_0_500 bl_1_500 br_0_500
+ br_1_500 bl_0_501 bl_1_501 br_0_501 br_1_501 bl_0_502 bl_1_502
+ br_0_502 br_1_502 bl_0_503 bl_1_503 br_0_503 br_1_503 bl_0_504
+ bl_1_504 br_0_504 br_1_504 bl_0_505 bl_1_505 br_0_505 br_1_505
+ bl_0_506 bl_1_506 br_0_506 br_1_506 bl_0_507 bl_1_507 br_0_507
+ br_1_507 bl_0_508 bl_1_508 br_0_508 br_1_508 bl_0_509 bl_1_509
+ br_0_509 br_1_509 bl_0_510 bl_1_510 br_0_510 br_1_510 bl_0_511
+ bl_1_511 br_0_511 br_1_511 bl_0_512 bl_1_512 br_0_512 br_1_512
+ bl_0_513 bl_1_513 br_0_513 br_1_513 wl_0_0 wl_1_0 vdd gnd
* INOUT : bl_0_0 
* INOUT : bl_1_0 
* INOUT : br_0_0 
* INOUT : br_1_0 
* INOUT : bl_0_1 
* INOUT : bl_1_1 
* INOUT : br_0_1 
* INOUT : br_1_1 
* INOUT : bl_0_2 
* INOUT : bl_1_2 
* INOUT : br_0_2 
* INOUT : br_1_2 
* INOUT : bl_0_3 
* INOUT : bl_1_3 
* INOUT : br_0_3 
* INOUT : br_1_3 
* INOUT : bl_0_4 
* INOUT : bl_1_4 
* INOUT : br_0_4 
* INOUT : br_1_4 
* INOUT : bl_0_5 
* INOUT : bl_1_5 
* INOUT : br_0_5 
* INOUT : br_1_5 
* INOUT : bl_0_6 
* INOUT : bl_1_6 
* INOUT : br_0_6 
* INOUT : br_1_6 
* INOUT : bl_0_7 
* INOUT : bl_1_7 
* INOUT : br_0_7 
* INOUT : br_1_7 
* INOUT : bl_0_8 
* INOUT : bl_1_8 
* INOUT : br_0_8 
* INOUT : br_1_8 
* INOUT : bl_0_9 
* INOUT : bl_1_9 
* INOUT : br_0_9 
* INOUT : br_1_9 
* INOUT : bl_0_10 
* INOUT : bl_1_10 
* INOUT : br_0_10 
* INOUT : br_1_10 
* INOUT : bl_0_11 
* INOUT : bl_1_11 
* INOUT : br_0_11 
* INOUT : br_1_11 
* INOUT : bl_0_12 
* INOUT : bl_1_12 
* INOUT : br_0_12 
* INOUT : br_1_12 
* INOUT : bl_0_13 
* INOUT : bl_1_13 
* INOUT : br_0_13 
* INOUT : br_1_13 
* INOUT : bl_0_14 
* INOUT : bl_1_14 
* INOUT : br_0_14 
* INOUT : br_1_14 
* INOUT : bl_0_15 
* INOUT : bl_1_15 
* INOUT : br_0_15 
* INOUT : br_1_15 
* INOUT : bl_0_16 
* INOUT : bl_1_16 
* INOUT : br_0_16 
* INOUT : br_1_16 
* INOUT : bl_0_17 
* INOUT : bl_1_17 
* INOUT : br_0_17 
* INOUT : br_1_17 
* INOUT : bl_0_18 
* INOUT : bl_1_18 
* INOUT : br_0_18 
* INOUT : br_1_18 
* INOUT : bl_0_19 
* INOUT : bl_1_19 
* INOUT : br_0_19 
* INOUT : br_1_19 
* INOUT : bl_0_20 
* INOUT : bl_1_20 
* INOUT : br_0_20 
* INOUT : br_1_20 
* INOUT : bl_0_21 
* INOUT : bl_1_21 
* INOUT : br_0_21 
* INOUT : br_1_21 
* INOUT : bl_0_22 
* INOUT : bl_1_22 
* INOUT : br_0_22 
* INOUT : br_1_22 
* INOUT : bl_0_23 
* INOUT : bl_1_23 
* INOUT : br_0_23 
* INOUT : br_1_23 
* INOUT : bl_0_24 
* INOUT : bl_1_24 
* INOUT : br_0_24 
* INOUT : br_1_24 
* INOUT : bl_0_25 
* INOUT : bl_1_25 
* INOUT : br_0_25 
* INOUT : br_1_25 
* INOUT : bl_0_26 
* INOUT : bl_1_26 
* INOUT : br_0_26 
* INOUT : br_1_26 
* INOUT : bl_0_27 
* INOUT : bl_1_27 
* INOUT : br_0_27 
* INOUT : br_1_27 
* INOUT : bl_0_28 
* INOUT : bl_1_28 
* INOUT : br_0_28 
* INOUT : br_1_28 
* INOUT : bl_0_29 
* INOUT : bl_1_29 
* INOUT : br_0_29 
* INOUT : br_1_29 
* INOUT : bl_0_30 
* INOUT : bl_1_30 
* INOUT : br_0_30 
* INOUT : br_1_30 
* INOUT : bl_0_31 
* INOUT : bl_1_31 
* INOUT : br_0_31 
* INOUT : br_1_31 
* INOUT : bl_0_32 
* INOUT : bl_1_32 
* INOUT : br_0_32 
* INOUT : br_1_32 
* INOUT : bl_0_33 
* INOUT : bl_1_33 
* INOUT : br_0_33 
* INOUT : br_1_33 
* INOUT : bl_0_34 
* INOUT : bl_1_34 
* INOUT : br_0_34 
* INOUT : br_1_34 
* INOUT : bl_0_35 
* INOUT : bl_1_35 
* INOUT : br_0_35 
* INOUT : br_1_35 
* INOUT : bl_0_36 
* INOUT : bl_1_36 
* INOUT : br_0_36 
* INOUT : br_1_36 
* INOUT : bl_0_37 
* INOUT : bl_1_37 
* INOUT : br_0_37 
* INOUT : br_1_37 
* INOUT : bl_0_38 
* INOUT : bl_1_38 
* INOUT : br_0_38 
* INOUT : br_1_38 
* INOUT : bl_0_39 
* INOUT : bl_1_39 
* INOUT : br_0_39 
* INOUT : br_1_39 
* INOUT : bl_0_40 
* INOUT : bl_1_40 
* INOUT : br_0_40 
* INOUT : br_1_40 
* INOUT : bl_0_41 
* INOUT : bl_1_41 
* INOUT : br_0_41 
* INOUT : br_1_41 
* INOUT : bl_0_42 
* INOUT : bl_1_42 
* INOUT : br_0_42 
* INOUT : br_1_42 
* INOUT : bl_0_43 
* INOUT : bl_1_43 
* INOUT : br_0_43 
* INOUT : br_1_43 
* INOUT : bl_0_44 
* INOUT : bl_1_44 
* INOUT : br_0_44 
* INOUT : br_1_44 
* INOUT : bl_0_45 
* INOUT : bl_1_45 
* INOUT : br_0_45 
* INOUT : br_1_45 
* INOUT : bl_0_46 
* INOUT : bl_1_46 
* INOUT : br_0_46 
* INOUT : br_1_46 
* INOUT : bl_0_47 
* INOUT : bl_1_47 
* INOUT : br_0_47 
* INOUT : br_1_47 
* INOUT : bl_0_48 
* INOUT : bl_1_48 
* INOUT : br_0_48 
* INOUT : br_1_48 
* INOUT : bl_0_49 
* INOUT : bl_1_49 
* INOUT : br_0_49 
* INOUT : br_1_49 
* INOUT : bl_0_50 
* INOUT : bl_1_50 
* INOUT : br_0_50 
* INOUT : br_1_50 
* INOUT : bl_0_51 
* INOUT : bl_1_51 
* INOUT : br_0_51 
* INOUT : br_1_51 
* INOUT : bl_0_52 
* INOUT : bl_1_52 
* INOUT : br_0_52 
* INOUT : br_1_52 
* INOUT : bl_0_53 
* INOUT : bl_1_53 
* INOUT : br_0_53 
* INOUT : br_1_53 
* INOUT : bl_0_54 
* INOUT : bl_1_54 
* INOUT : br_0_54 
* INOUT : br_1_54 
* INOUT : bl_0_55 
* INOUT : bl_1_55 
* INOUT : br_0_55 
* INOUT : br_1_55 
* INOUT : bl_0_56 
* INOUT : bl_1_56 
* INOUT : br_0_56 
* INOUT : br_1_56 
* INOUT : bl_0_57 
* INOUT : bl_1_57 
* INOUT : br_0_57 
* INOUT : br_1_57 
* INOUT : bl_0_58 
* INOUT : bl_1_58 
* INOUT : br_0_58 
* INOUT : br_1_58 
* INOUT : bl_0_59 
* INOUT : bl_1_59 
* INOUT : br_0_59 
* INOUT : br_1_59 
* INOUT : bl_0_60 
* INOUT : bl_1_60 
* INOUT : br_0_60 
* INOUT : br_1_60 
* INOUT : bl_0_61 
* INOUT : bl_1_61 
* INOUT : br_0_61 
* INOUT : br_1_61 
* INOUT : bl_0_62 
* INOUT : bl_1_62 
* INOUT : br_0_62 
* INOUT : br_1_62 
* INOUT : bl_0_63 
* INOUT : bl_1_63 
* INOUT : br_0_63 
* INOUT : br_1_63 
* INOUT : bl_0_64 
* INOUT : bl_1_64 
* INOUT : br_0_64 
* INOUT : br_1_64 
* INOUT : bl_0_65 
* INOUT : bl_1_65 
* INOUT : br_0_65 
* INOUT : br_1_65 
* INOUT : bl_0_66 
* INOUT : bl_1_66 
* INOUT : br_0_66 
* INOUT : br_1_66 
* INOUT : bl_0_67 
* INOUT : bl_1_67 
* INOUT : br_0_67 
* INOUT : br_1_67 
* INOUT : bl_0_68 
* INOUT : bl_1_68 
* INOUT : br_0_68 
* INOUT : br_1_68 
* INOUT : bl_0_69 
* INOUT : bl_1_69 
* INOUT : br_0_69 
* INOUT : br_1_69 
* INOUT : bl_0_70 
* INOUT : bl_1_70 
* INOUT : br_0_70 
* INOUT : br_1_70 
* INOUT : bl_0_71 
* INOUT : bl_1_71 
* INOUT : br_0_71 
* INOUT : br_1_71 
* INOUT : bl_0_72 
* INOUT : bl_1_72 
* INOUT : br_0_72 
* INOUT : br_1_72 
* INOUT : bl_0_73 
* INOUT : bl_1_73 
* INOUT : br_0_73 
* INOUT : br_1_73 
* INOUT : bl_0_74 
* INOUT : bl_1_74 
* INOUT : br_0_74 
* INOUT : br_1_74 
* INOUT : bl_0_75 
* INOUT : bl_1_75 
* INOUT : br_0_75 
* INOUT : br_1_75 
* INOUT : bl_0_76 
* INOUT : bl_1_76 
* INOUT : br_0_76 
* INOUT : br_1_76 
* INOUT : bl_0_77 
* INOUT : bl_1_77 
* INOUT : br_0_77 
* INOUT : br_1_77 
* INOUT : bl_0_78 
* INOUT : bl_1_78 
* INOUT : br_0_78 
* INOUT : br_1_78 
* INOUT : bl_0_79 
* INOUT : bl_1_79 
* INOUT : br_0_79 
* INOUT : br_1_79 
* INOUT : bl_0_80 
* INOUT : bl_1_80 
* INOUT : br_0_80 
* INOUT : br_1_80 
* INOUT : bl_0_81 
* INOUT : bl_1_81 
* INOUT : br_0_81 
* INOUT : br_1_81 
* INOUT : bl_0_82 
* INOUT : bl_1_82 
* INOUT : br_0_82 
* INOUT : br_1_82 
* INOUT : bl_0_83 
* INOUT : bl_1_83 
* INOUT : br_0_83 
* INOUT : br_1_83 
* INOUT : bl_0_84 
* INOUT : bl_1_84 
* INOUT : br_0_84 
* INOUT : br_1_84 
* INOUT : bl_0_85 
* INOUT : bl_1_85 
* INOUT : br_0_85 
* INOUT : br_1_85 
* INOUT : bl_0_86 
* INOUT : bl_1_86 
* INOUT : br_0_86 
* INOUT : br_1_86 
* INOUT : bl_0_87 
* INOUT : bl_1_87 
* INOUT : br_0_87 
* INOUT : br_1_87 
* INOUT : bl_0_88 
* INOUT : bl_1_88 
* INOUT : br_0_88 
* INOUT : br_1_88 
* INOUT : bl_0_89 
* INOUT : bl_1_89 
* INOUT : br_0_89 
* INOUT : br_1_89 
* INOUT : bl_0_90 
* INOUT : bl_1_90 
* INOUT : br_0_90 
* INOUT : br_1_90 
* INOUT : bl_0_91 
* INOUT : bl_1_91 
* INOUT : br_0_91 
* INOUT : br_1_91 
* INOUT : bl_0_92 
* INOUT : bl_1_92 
* INOUT : br_0_92 
* INOUT : br_1_92 
* INOUT : bl_0_93 
* INOUT : bl_1_93 
* INOUT : br_0_93 
* INOUT : br_1_93 
* INOUT : bl_0_94 
* INOUT : bl_1_94 
* INOUT : br_0_94 
* INOUT : br_1_94 
* INOUT : bl_0_95 
* INOUT : bl_1_95 
* INOUT : br_0_95 
* INOUT : br_1_95 
* INOUT : bl_0_96 
* INOUT : bl_1_96 
* INOUT : br_0_96 
* INOUT : br_1_96 
* INOUT : bl_0_97 
* INOUT : bl_1_97 
* INOUT : br_0_97 
* INOUT : br_1_97 
* INOUT : bl_0_98 
* INOUT : bl_1_98 
* INOUT : br_0_98 
* INOUT : br_1_98 
* INOUT : bl_0_99 
* INOUT : bl_1_99 
* INOUT : br_0_99 
* INOUT : br_1_99 
* INOUT : bl_0_100 
* INOUT : bl_1_100 
* INOUT : br_0_100 
* INOUT : br_1_100 
* INOUT : bl_0_101 
* INOUT : bl_1_101 
* INOUT : br_0_101 
* INOUT : br_1_101 
* INOUT : bl_0_102 
* INOUT : bl_1_102 
* INOUT : br_0_102 
* INOUT : br_1_102 
* INOUT : bl_0_103 
* INOUT : bl_1_103 
* INOUT : br_0_103 
* INOUT : br_1_103 
* INOUT : bl_0_104 
* INOUT : bl_1_104 
* INOUT : br_0_104 
* INOUT : br_1_104 
* INOUT : bl_0_105 
* INOUT : bl_1_105 
* INOUT : br_0_105 
* INOUT : br_1_105 
* INOUT : bl_0_106 
* INOUT : bl_1_106 
* INOUT : br_0_106 
* INOUT : br_1_106 
* INOUT : bl_0_107 
* INOUT : bl_1_107 
* INOUT : br_0_107 
* INOUT : br_1_107 
* INOUT : bl_0_108 
* INOUT : bl_1_108 
* INOUT : br_0_108 
* INOUT : br_1_108 
* INOUT : bl_0_109 
* INOUT : bl_1_109 
* INOUT : br_0_109 
* INOUT : br_1_109 
* INOUT : bl_0_110 
* INOUT : bl_1_110 
* INOUT : br_0_110 
* INOUT : br_1_110 
* INOUT : bl_0_111 
* INOUT : bl_1_111 
* INOUT : br_0_111 
* INOUT : br_1_111 
* INOUT : bl_0_112 
* INOUT : bl_1_112 
* INOUT : br_0_112 
* INOUT : br_1_112 
* INOUT : bl_0_113 
* INOUT : bl_1_113 
* INOUT : br_0_113 
* INOUT : br_1_113 
* INOUT : bl_0_114 
* INOUT : bl_1_114 
* INOUT : br_0_114 
* INOUT : br_1_114 
* INOUT : bl_0_115 
* INOUT : bl_1_115 
* INOUT : br_0_115 
* INOUT : br_1_115 
* INOUT : bl_0_116 
* INOUT : bl_1_116 
* INOUT : br_0_116 
* INOUT : br_1_116 
* INOUT : bl_0_117 
* INOUT : bl_1_117 
* INOUT : br_0_117 
* INOUT : br_1_117 
* INOUT : bl_0_118 
* INOUT : bl_1_118 
* INOUT : br_0_118 
* INOUT : br_1_118 
* INOUT : bl_0_119 
* INOUT : bl_1_119 
* INOUT : br_0_119 
* INOUT : br_1_119 
* INOUT : bl_0_120 
* INOUT : bl_1_120 
* INOUT : br_0_120 
* INOUT : br_1_120 
* INOUT : bl_0_121 
* INOUT : bl_1_121 
* INOUT : br_0_121 
* INOUT : br_1_121 
* INOUT : bl_0_122 
* INOUT : bl_1_122 
* INOUT : br_0_122 
* INOUT : br_1_122 
* INOUT : bl_0_123 
* INOUT : bl_1_123 
* INOUT : br_0_123 
* INOUT : br_1_123 
* INOUT : bl_0_124 
* INOUT : bl_1_124 
* INOUT : br_0_124 
* INOUT : br_1_124 
* INOUT : bl_0_125 
* INOUT : bl_1_125 
* INOUT : br_0_125 
* INOUT : br_1_125 
* INOUT : bl_0_126 
* INOUT : bl_1_126 
* INOUT : br_0_126 
* INOUT : br_1_126 
* INOUT : bl_0_127 
* INOUT : bl_1_127 
* INOUT : br_0_127 
* INOUT : br_1_127 
* INOUT : bl_0_128 
* INOUT : bl_1_128 
* INOUT : br_0_128 
* INOUT : br_1_128 
* INOUT : bl_0_129 
* INOUT : bl_1_129 
* INOUT : br_0_129 
* INOUT : br_1_129 
* INOUT : bl_0_130 
* INOUT : bl_1_130 
* INOUT : br_0_130 
* INOUT : br_1_130 
* INOUT : bl_0_131 
* INOUT : bl_1_131 
* INOUT : br_0_131 
* INOUT : br_1_131 
* INOUT : bl_0_132 
* INOUT : bl_1_132 
* INOUT : br_0_132 
* INOUT : br_1_132 
* INOUT : bl_0_133 
* INOUT : bl_1_133 
* INOUT : br_0_133 
* INOUT : br_1_133 
* INOUT : bl_0_134 
* INOUT : bl_1_134 
* INOUT : br_0_134 
* INOUT : br_1_134 
* INOUT : bl_0_135 
* INOUT : bl_1_135 
* INOUT : br_0_135 
* INOUT : br_1_135 
* INOUT : bl_0_136 