**************************************************
* OpenRAM generated memory.
* Words: 64
* Data bits: 176
* Banks: 1
* Column mux: 1:1
* Trimmed: False
* LVS: False
**************************************************

.SUBCKT replica_cell_1rw bl br wl vdd gnd
* Inverter 1
MM0 vdd Q gnd gnd NMOS_VTG W=205.00n L=50n
MM4 vdd Q vdd vdd PMOS_VTG W=90n L=50n

* Inverer 2
MM1 Q vdd gnd gnd NMOS_VTG W=205.00n L=50n
MM5 Q vdd vdd vdd PMOS_VTG W=90n L=50n

* Access transistors
MM3 bl wl Q gnd NMOS_VTG W=135.00n L=50n
MM2 br wl vdd gnd NMOS_VTG W=135.00n L=50n
.ENDS cell_1rw


.SUBCKT freepdk45_sram_1rw0r_64x176_22_replica_column
+ bl_0_0 br_0_0 wl_0_0 wl_0_1 wl_0_2 wl_0_3 wl_0_4 wl_0_5 wl_0_6 wl_0_7
+ wl_0_8 wl_0_9 wl_0_10 wl_0_11 wl_0_12 wl_0_13 wl_0_14 wl_0_15 wl_0_16
+ wl_0_17 wl_0_18 wl_0_19 wl_0_20 wl_0_21 wl_0_22 wl_0_23 wl_0_24
+ wl_0_25 wl_0_26 wl_0_27 wl_0_28 wl_0_29 wl_0_30 wl_0_31 wl_0_32
+ wl_0_33 wl_0_34 wl_0_35 wl_0_36 wl_0_37 wl_0_38 wl_0_39 wl_0_40
+ wl_0_41 wl_0_42 wl_0_43 wl_0_44 wl_0_45 wl_0_46 wl_0_47 wl_0_48
+ wl_0_49 wl_0_50 wl_0_51 wl_0_52 wl_0_53 wl_0_54 wl_0_55 wl_0_56
+ wl_0_57 wl_0_58 wl_0_59 wl_0_60 wl_0_61 wl_0_62 wl_0_63 wl_0_64 vdd
+ gnd
* OUTPUT: bl_0_0 
* OUTPUT: br_0_0 
* INPUT : wl_0_0 
* INPUT : wl_0_1 
* INPUT : wl_0_2 
* INPUT : wl_0_3 
* INPUT : wl_0_4 
* INPUT : wl_0_5 
* INPUT : wl_0_6 
* INPUT : wl_0_7 
* INPUT : wl_0_8 
* INPUT : wl_0_9 
* INPUT : wl_0_10 
* INPUT : wl_0_11 
* INPUT : wl_0_12 
* INPUT : wl_0_13 
* INPUT : wl_0_14 
* INPUT : wl_0_15 
* INPUT : wl_0_16 
* INPUT : wl_0_17 
* INPUT : wl_0_18 
* INPUT : wl_0_19 
* INPUT : wl_0_20 
* INPUT : wl_0_21 
* INPUT : wl_0_22 
* INPUT : wl_0_23 
* INPUT : wl_0_24 
* INPUT : wl_0_25 
* INPUT : wl_0_26 
* INPUT : wl_0_27 
* INPUT : wl_0_28 
* INPUT : wl_0_29 
* INPUT : wl_0_30 
* INPUT : wl_0_31 
* INPUT : wl_0_32 
* INPUT : wl_0_33 
* INPUT : wl_0_34 
* INPUT : wl_0_35 
* INPUT : wl_0_36 
* INPUT : wl_0_37 
* INPUT : wl_0_38 
* INPUT : wl_0_39 
* INPUT : wl_0_40 
* INPUT : wl_0_41 
* INPUT : wl_0_42 
* INPUT : wl_0_43 
* INPUT : wl_0_44 
* INPUT : wl_0_45 
* INPUT : wl_0_46 
* INPUT : wl_0_47 
* INPUT : wl_0_48 
* INPUT : wl_0_49 
* INPUT : wl_0_50 
* INPUT : wl_0_51 
* INPUT : wl_0_52 
* INPUT : wl_0_53 
* INPUT : wl_0_54 
* INPUT : wl_0_55 
* INPUT : wl_0_56 
* INPUT : wl_0_57 
* INPUT : wl_0_58 
* INPUT : wl_0_59 
* INPUT : wl_0_60 
* INPUT : wl_0_61 
* INPUT : wl_0_62 
* INPUT : wl_0_63 
* INPUT : wl_0_64 
* POWER : vdd 
* GROUND: gnd 
Xrbc_0
+ bl_0_0 br_0_0 wl_0_0 vdd gnd
+ replica_cell_1rw
Xrbc_1
+ bl_0_0 br_0_0 wl_0_1 vdd gnd
+ replica_cell_1rw
Xrbc_2
+ bl_0_0 br_0_0 wl_0_2 vdd gnd
+ replica_cell_1rw
Xrbc_3
+ bl_0_0 br_0_0 wl_0_3 vdd gnd
+ replica_cell_1rw
Xrbc_4
+ bl_0_0 br_0_0 wl_0_4 vdd gnd
+ replica_cell_1rw
Xrbc_5
+ bl_0_0 br_0_0 wl_0_5 vdd gnd
+ replica_cell_1rw
Xrbc_6
+ bl_0_0 br_0_0 wl_0_6 vdd gnd
+ replica_cell_1rw
Xrbc_7
+ bl_0_0 br_0_0 wl_0_7 vdd gnd
+ replica_cell_1rw
Xrbc_8
+ bl_0_0 br_0_0 wl_0_8 vdd gnd
+ replica_cell_1rw
Xrbc_9
+ bl_0_0 br_0_0 wl_0_9 vdd gnd
+ replica_cell_1rw
Xrbc_10
+ bl_0_0 br_0_0 wl_0_10 vdd gnd
+ replica_cell_1rw
Xrbc_11
+ bl_0_0 br_0_0 wl_0_11 vdd gnd
+ replica_cell_1rw
Xrbc_12
+ bl_0_0 br_0_0 wl_0_12 vdd gnd
+ replica_cell_1rw
Xrbc_13
+ bl_0_0 br_0_0 wl_0_13 vdd gnd
+ replica_cell_1rw
Xrbc_14
+ bl_0_0 br_0_0 wl_0_14 vdd gnd
+ replica_cell_1rw
Xrbc_15
+ bl_0_0 br_0_0 wl_0_15 vdd gnd
+ replica_cell_1rw
Xrbc_16
+ bl_0_0 br_0_0 wl_0_16 vdd gnd
+ replica_cell_1rw
Xrbc_17
+ bl_0_0 br_0_0 wl_0_17 vdd gnd
+ replica_cell_1rw
Xrbc_18
+ bl_0_0 br_0_0 wl_0_18 vdd gnd
+ replica_cell_1rw
Xrbc_19
+ bl_0_0 br_0_0 wl_0_19 vdd gnd
+ replica_cell_1rw
Xrbc_20
+ bl_0_0 br_0_0 wl_0_20 vdd gnd
+ replica_cell_1rw
Xrbc_21
+ bl_0_0 br_0_0 wl_0_21 vdd gnd
+ replica_cell_1rw
Xrbc_22
+ bl_0_0 br_0_0 wl_0_22 vdd gnd
+ replica_cell_1rw
Xrbc_23
+ bl_0_0 br_0_0 wl_0_23 vdd gnd
+ replica_cell_1rw
Xrbc_24
+ bl_0_0 br_0_0 wl_0_24 vdd gnd
+ replica_cell_1rw
Xrbc_25
+ bl_0_0 br_0_0 wl_0_25 vdd gnd
+ replica_cell_1rw
Xrbc_26
+ bl_0_0 br_0_0 wl_0_26 vdd gnd
+ replica_cell_1rw
Xrbc_27
+ bl_0_0 br_0_0 wl_0_27 vdd gnd
+ replica_cell_1rw
Xrbc_28
+ bl_0_0 br_0_0 wl_0_28 vdd gnd
+ replica_cell_1rw
Xrbc_29
+ bl_0_0 br_0_0 wl_0_29 vdd gnd
+ replica_cell_1rw
Xrbc_30
+ bl_0_0 br_0_0 wl_0_30 vdd gnd
+ replica_cell_1rw
Xrbc_31
+ bl_0_0 br_0_0 wl_0_31 vdd gnd
+ replica_cell_1rw
Xrbc_32
+ bl_0_0 br_0_0 wl_0_32 vdd gnd
+ replica_cell_1rw
Xrbc_33
+ bl_0_0 br_0_0 wl_0_33 vdd gnd
+ replica_cell_1rw
Xrbc_34
+ bl_0_0 br_0_0 wl_0_34 vdd gnd
+ replica_cell_1rw
Xrbc_35
+ bl_0_0 br_0_0 wl_0_35 vdd gnd
+ replica_cell_1rw
Xrbc_36
+ bl_0_0 br_0_0 wl_0_36 vdd gnd
+ replica_cell_1rw
Xrbc_37
+ bl_0_0 br_0_0 wl_0_37 vdd gnd
+ replica_cell_1rw
Xrbc_38
+ bl_0_0 br_0_0 wl_0_38 vdd gnd
+ replica_cell_1rw
Xrbc_39
+ bl_0_0 br_0_0 wl_0_39 vdd gnd
+ replica_cell_1rw
Xrbc_40
+ bl_0_0 br_0_0 wl_0_40 vdd gnd
+ replica_cell_1rw
Xrbc_41
+ bl_0_0 br_0_0 wl_0_41 vdd gnd
+ replica_cell_1rw
Xrbc_42
+ bl_0_0 br_0_0 wl_0_42 vdd gnd
+ replica_cell_1rw
Xrbc_43
+ bl_0_0 br_0_0 wl_0_43 vdd gnd
+ replica_cell_1rw
Xrbc_44
+ bl_0_0 br_0_0 wl_0_44 vdd gnd
+ replica_cell_1rw
Xrbc_45
+ bl_0_0 br_0_0 wl_0_45 vdd gnd
+ replica_cell_1rw
Xrbc_46
+ bl_0_0 br_0_0 wl_0_46 vdd gnd
+ replica_cell_1rw
Xrbc_47
+ bl_0_0 br_0_0 wl_0_47 vdd gnd
+ replica_cell_1rw
Xrbc_48
+ bl_0_0 br_0_0 wl_0_48 vdd gnd
+ replica_cell_1rw
Xrbc_49
+ bl_0_0 br_0_0 wl_0_49 vdd gnd
+ replica_cell_1rw
Xrbc_50
+ bl_0_0 br_0_0 wl_0_50 vdd gnd
+ replica_cell_1rw
Xrbc_51
+ bl_0_0 br_0_0 wl_0_51 vdd gnd
+ replica_cell_1rw
Xrbc_52
+ bl_0_0 br_0_0 wl_0_52 vdd gnd
+ replica_cell_1rw
Xrbc_53
+ bl_0_0 br_0_0 wl_0_53 vdd gnd
+ replica_cell_1rw
Xrbc_54
+ bl_0_0 br_0_0 wl_0_54 vdd gnd
+ replica_cell_1rw
Xrbc_55
+ bl_0_0 br_0_0 wl_0_55 vdd gnd
+ replica_cell_1rw
Xrbc_56
+ bl_0_0 br_0_0 wl_0_56 vdd gnd
+ replica_cell_1rw
Xrbc_57
+ bl_0_0 br_0_0 wl_0_57 vdd gnd
+ replica_cell_1rw
Xrbc_58
+ bl_0_0 br_0_0 wl_0_58 vdd gnd
+ replica_cell_1rw
Xrbc_59
+ bl_0_0 br_0_0 wl_0_59 vdd gnd
+ replica_cell_1rw
Xrbc_60
+ bl_0_0 br_0_0 wl_0_60 vdd gnd
+ replica_cell_1rw
Xrbc_61
+ bl_0_0 br_0_0 wl_0_61 vdd gnd
+ replica_cell_1rw
Xrbc_62
+ bl_0_0 br_0_0 wl_0_62 vdd gnd
+ replica_cell_1rw
Xrbc_63
+ bl_0_0 br_0_0 wl_0_63 vdd gnd
+ replica_cell_1rw
Xrbc_64
+ bl_0_0 br_0_0 wl_0_64 vdd gnd
+ replica_cell_1rw
.ENDS freepdk45_sram_1rw0r_64x176_22_replica_column

.SUBCKT cell_1rw bl br wl vdd gnd
* Inverter 1
MM0 Q_bar Q gnd gnd NMOS_VTG W=205.00n L=50n
MM4 Q_bar Q vdd vdd PMOS_VTG W=90n L=50n

* Inverer 2
MM1 Q Q_bar gnd gnd NMOS_VTG W=205.00n L=50n
MM5 Q Q_bar vdd vdd PMOS_VTG W=90n L=50n

* Access transistors
MM3 bl wl Q gnd NMOS_VTG W=135.00n L=50n
MM2 br wl Q_bar gnd NMOS_VTG W=135.00n L=50n
.ENDS cell_1rw


.SUBCKT freepdk45_sram_1rw0r_64x176_22_bitcell_array
+ bl_0_0 br_0_0 bl_0_1 br_0_1 bl_0_2 br_0_2 bl_0_3 br_0_3 bl_0_4 br_0_4
+ bl_0_5 br_0_5 bl_0_6 br_0_6 bl_0_7 br_0_7 bl_0_8 br_0_8 bl_0_9 br_0_9
+ bl_0_10 br_0_10 bl_0_11 br_0_11 bl_0_12 br_0_12 bl_0_13 br_0_13
+ bl_0_14 br_0_14 bl_0_15 br_0_15 bl_0_16 br_0_16 bl_0_17 br_0_17
+ bl_0_18 br_0_18 bl_0_19 br_0_19 bl_0_20 br_0_20 bl_0_21 br_0_21
+ bl_0_22 br_0_22 bl_0_23 br_0_23 bl_0_24 br_0_24 bl_0_25 br_0_25
+ bl_0_26 br_0_26 bl_0_27 br_0_27 bl_0_28 br_0_28 bl_0_29 br_0_29
+ bl_0_30 br_0_30 bl_0_31 br_0_31 bl_0_32 br_0_32 bl_0_33 br_0_33
+ bl_0_34 br_0_34 bl_0_35 br_0_35 bl_0_36 br_0_36 bl_0_37 br_0_37
+ bl_0_38 br_0_38 bl_0_39 br_0_39 bl_0_40 br_0_40 bl_0_41 br_0_41
+ bl_0_42 br_0_42 bl_0_43 br_0_43 bl_0_44 br_0_44 bl_0_45 br_0_45
+ bl_0_46 br_0_46 bl_0_47 br_0_47 bl_0_48 br_0_48 bl_0_49 br_0_49
+ bl_0_50 br_0_50 bl_0_51 br_0_51 bl_0_52 br_0_52 bl_0_53 br_0_53
+ bl_0_54 br_0_54 bl_0_55 br_0_55 bl_0_56 br_0_56 bl_0_57 br_0_57
+ bl_0_58 br_0_58 bl_0_59 br_0_59 bl_0_60 br_0_60 bl_0_61 br_0_61
+ bl_0_62 br_0_62 bl_0_63 br_0_63 bl_0_64 br_0_64 bl_0_65 br_0_65
+ bl_0_66 br_0_66 bl_0_67 br_0_67 bl_0_68 br_0_68 bl_0_69 br_0_69
+ bl_0_70 br_0_70 bl_0_71 br_0_71 bl_0_72 br_0_72 bl_0_73 br_0_73
+ bl_0_74 br_0_74 bl_0_75 br_0_75 bl_0_76 br_0_76 bl_0_77 br_0_77
+ bl_0_78 br_0_78 bl_0_79 br_0_79 bl_0_80 br_0_80 bl_0_81 br_0_81
+ bl_0_82 br_0_82 bl_0_83 br_0_83 bl_0_84 br_0_84 bl_0_85 br_0_85
+ bl_0_86 br_0_86 bl_0_87 br_0_87 bl_0_88 br_0_88 bl_0_89 br_0_89
+ bl_0_90 br_0_90 bl_0_91 br_0_91 bl_0_92 br_0_92 bl_0_93 br_0_93
+ bl_0_94 br_0_94 bl_0_95 br_0_95 bl_0_96 br_0_96 bl_0_97 br_0_97
+ bl_0_98 br_0_98 bl_0_99 br_0_99 bl_0_100 br_0_100 bl_0_101 br_0_101
+ bl_0_102 br_0_102 bl_0_103 br_0_103 bl_0_104 br_0_104 bl_0_105
+ br_0_105 bl_0_106 br_0_106 bl_0_107 br_0_107 bl_0_108 br_0_108
+ bl_0_109 br_0_109 bl_0_110 br_0_110 bl_0_111 br_0_111 bl_0_112
+ br_0_112 bl_0_113 br_0_113 bl_0_114 br_0_114 bl_0_115 br_0_115
+ bl_0_116 br_0_116 bl_0_117 br_0_117 bl_0_118 br_0_118 bl_0_119
+ br_0_119 bl_0_120 br_0_120 bl_0_121 br_0_121 bl_0_122 br_0_122
+ bl_0_123 br_0_123 bl_0_124 br_0_124 bl_0_125 br_0_125 bl_0_126
+ br_0_126 bl_0_127 br_0_127 bl_0_128 br_0_128 bl_0_129 br_0_129
+ bl_0_130 br_0_130 bl_0_131 br_0_131 bl_0_132 br_0_132 bl_0_133
+ br_0_133 bl_0_134 br_0_134 bl_0_135 br_0_135 bl_0_136 br_0_136
+ bl_0_137 br_0_137 bl_0_138 br_0_138 bl_0_139 br_0_139 bl_0_140
+ br_0_140 bl_0_141 br_0_141 bl_0_142 br_0_142 bl_0_143 br_0_143
+ bl_0_144 br_0_144 bl_0_145 br_0_145 bl_0_146 br_0_146 bl_0_147
+ br_0_147 bl_0_148 br_0_148 bl_0_149 br_0_149 bl_0_150 br_0_150
+ bl_0_151 br_0_151 bl_0_152 br_0_152 bl_0_153 br_0_153 bl_0_154
+ br_0_154 bl_0_155 br_0_155 bl_0_156 br_0_156 bl_0_157 br_0_157
+ bl_0_158 br_0_158 bl_0_159 br_0_159 bl_0_160 br_0_160 bl_0_161
+ br_0_161 bl_0_162 br_0_162 bl_0_163 br_0_163 bl_0_164 br_0_164
+ bl_0_165 br_0_165 bl_0_166 br_0_166 bl_0_167 br_0_167 bl_0_168
+ br_0_168 bl_0_169 br_0_169 bl_0_170 br_0_170 bl_0_171 br_0_171
+ bl_0_172 br_0_172 bl_0_173 br_0_173 bl_0_174 br_0_174 bl_0_175
+ br_0_175 wl_0_0 wl_0_1 wl_0_2 wl_0_3 wl_0_4 wl_0_5 wl_0_6 wl_0_7
+ wl_0_8 wl_0_9 wl_0_10 wl_0_11 wl_0_12 wl_0_13 wl_0_14 wl_0_15 wl_0_16
+ wl_0_17 wl_0_18 wl_0_19 wl_0_20 wl_0_21 wl_0_22 wl_0_23 wl_0_24
+ wl_0_25 wl_0_26 wl_0_27 wl_0_28 wl_0_29 wl_0_30 wl_0_31 wl_0_32
+ wl_0_33 wl_0_34 wl_0_35 wl_0_36 wl_0_37 wl_0_38 wl_0_39 wl_0_40
+ wl_0_41 wl_0_42 wl_0_43 wl_0_44 wl_0_45 wl_0_46 wl_0_47 wl_0_48
+ wl_0_49 wl_0_50 wl_0_51 wl_0_52 wl_0_53 wl_0_54 wl_0_55 wl_0_56
+ wl_0_57 wl_0_58 wl_0_59 wl_0_60 wl_0_61 wl_0_62 wl_0_63 vdd gnd
* INOUT : bl_0_0 
* INOUT : br_0_0 
* INOUT : bl_0_1 
* INOUT : br_0_1 
* INOUT : bl_0_2 
* INOUT : br_0_2 
* INOUT : bl_0_3 
* INOUT : br_0_3 
* INOUT : bl_0_4 
* INOUT : br_0_4 
* INOUT : bl_0_5 
* INOUT : br_0_5 
* INOUT : bl_0_6 
* INOUT : br_0_6 
* INOUT : bl_0_7 
* INOUT : br_0_7 
* INOUT : bl_0_8 
* INOUT : br_0_8 
* INOUT : bl_0_9 
* INOUT : br_0_9 
* INOUT : bl_0_10 
* INOUT : br_0_10 
* INOUT : bl_0_11 
* INOUT : br_0_11 
* INOUT : bl_0_12 
* INOUT : br_0_12 
* INOUT : bl_0_13 
* INOUT : br_0_13 
* INOUT : bl_0_14 
* INOUT : br_0_14 
* INOUT : bl_0_15 
* INOUT : br_0_15 
* INOUT : bl_0_16 
* INOUT : br_0_16 
* INOUT : bl_0_17 
* INOUT : br_0_17 
* INOUT : bl_0_18 
* INOUT : br_0_18 
* INOUT : bl_0_19 
* INOUT : br_0_19 
* INOUT : bl_0_20 
* INOUT : br_0_20 
* INOUT : bl_0_21 
* INOUT : br_0_21 
* INOUT : bl_0_22 
* INOUT : br_0_22 
* INOUT : bl_0_23 
* INOUT : br_0_23 
* INOUT : bl_0_24 
* INOUT : br_0_24 
* INOUT : bl_0_25 
* INOUT : br_0_25 
* INOUT : bl_0_26 
* INOUT : br_0_26 
* INOUT : bl_0_27 
* INOUT : br_0_27 
* INOUT : bl_0_28 
* INOUT : br_0_28 
* INOUT : bl_0_29 
* INOUT : br_0_29 
* INOUT : bl_0_30 
* INOUT : br_0_30 
* INOUT : bl_0_31 
* INOUT : br_0_31 
* INOUT : bl_0_32 
* INOUT : br_0_32 
* INOUT : bl_0_33 
* INOUT : br_0_33 
* INOUT : bl_0_34 
* INOUT : br_0_34 
* INOUT : bl_0_35 
* INOUT : br_0_35 
* INOUT : bl_0_36 
* INOUT : br_0_36 
* INOUT : bl_0_37 
* INOUT : br_0_37 
* INOUT : bl_0_38 
* INOUT : br_0_38 
* INOUT : bl_0_39 
* INOUT : br_0_39 
* INOUT : bl_0_40 
* INOUT : br_0_40 
* INOUT : bl_0_41 
* INOUT : br_0_41 
* INOUT : bl_0_42 
* INOUT : br_0_42 
* INOUT : bl_0_43 
* INOUT : br_0_43 
* INOUT : bl_0_44 
* INOUT : br_0_44 
* INOUT : bl_0_45 
* INOUT : br_0_45 
* INOUT : bl_0_46 
* INOUT : br_0_46 
* INOUT : bl_0_47 
* INOUT : br_0_47 
* INOUT : bl_0_48 
* INOUT : br_0_48 
* INOUT : bl_0_49 
* INOUT : br_0_49 
* INOUT : bl_0_50 
* INOUT : br_0_50 
* INOUT : bl_0_51 
* INOUT : br_0_51 
* INOUT : bl_0_52 
* INOUT : br_0_52 
* INOUT : bl_0_53 
* INOUT : br_0_53 
* INOUT : bl_0_54 
* INOUT : br_0_54 
* INOUT : bl_0_55 
* INOUT : br_0_55 
* INOUT : bl_0_56 
* INOUT : br_0_56 
* INOUT : bl_0_57 
* INOUT : br_0_57 
* INOUT : bl_0_58 
* INOUT : br_0_58 
* INOUT : bl_0_59 
* INOUT : br_0_59 
* INOUT : bl_0_60 
* INOUT : br_0_60 
* INOUT : bl_0_61 
* INOUT : br_0_61 
* INOUT : bl_0_62 
* INOUT : br_0_62 
* INOUT : bl_0_63 
* INOUT : br_0_63 
* INOUT : bl_0_64 
* INOUT : br_0_64 
* INOUT : bl_0_65 
* INOUT : br_0_65 
* INOUT : bl_0_66 
* INOUT : br_0_66 
* INOUT : bl_0_67 
* INOUT : br_0_67 
* INOUT : bl_0_68 
* INOUT : br_0_68 
* INOUT : bl_0_69 
* INOUT : br_0_69 
* INOUT : bl_0_70 
* INOUT : br_0_70 
* INOUT : bl_0_71 
* INOUT : br_0_71 
* INOUT : bl_0_72 
* INOUT : br_0_72 
* INOUT : bl_0_73 
* INOUT : br_0_73 
* INOUT : bl_0_74 
* INOUT : br_0_74 
* INOUT : bl_0_75 
* INOUT : br_0_75 
* INOUT : bl_0_76 
* INOUT : br_0_76 
* INOUT : bl_0_77 
* INOUT : br_0_77 
* INOUT : bl_0_78 
* INOUT : br_0_78 
* INOUT : bl_0_79 
* INOUT : br_0_79 
* INOUT : bl_0_80 
* INOUT : br_0_80 
* INOUT : bl_0_81 
* INOUT : br_0_81 
* INOUT : bl_0_82 
* INOUT : br_0_82 
* INOUT : bl_0_83 
* INOUT : br_0_83 
* INOUT : bl_0_84 
* INOUT : br_0_84 
* INOUT : bl_0_85 
* INOUT : br_0_85 
* INOUT : bl_0_86 
* INOUT : br_0_86 
* INOUT : bl_0_87 
* INOUT : br_0_87 
* INOUT : bl_0_88 
* INOUT : br_0_88 
* INOUT : bl_0_89 
* INOUT : br_0_89 
* INOUT : bl_0_90 
* INOUT : br_0_90 
* INOUT : bl_0_91 
* INOUT : br_0_91 
* INOUT : bl_0_92 
* INOUT : br_0_92 
* INOUT : bl_0_93 
* INOUT : br_0_93 
* INOUT : bl_0_94 
* INOUT : br_0_94 
* INOUT : bl_0_95 
* INOUT : br_0_95 
* INOUT : bl_0_96 
* INOUT : br_0_96 
* INOUT : bl_0_97 
* INOUT : br_0_97 
* INOUT : bl_0_98 
* INOUT : br_0_98 
* INOUT : bl_0_99 
* INOUT : br_0_99 
* INOUT : bl_0_100 
* INOUT : br_0_100 
* INOUT : bl_0_101 
* INOUT : br_0_101 
* INOUT : bl_0_102 
* INOUT : br_0_102 
* INOUT : bl_0_103 
* INOUT : br_0_103 
* INOUT : bl_0_104 
* INOUT : br_0_104 
* INOUT : bl_0_105 
* INOUT : br_0_105 
* INOUT : bl_0_106 
* INOUT : br_0_106 
* INOUT : bl_0_107 
* INOUT : br_0_107 
* INOUT : bl_0_108 
* INOUT : br_0_108 
* INOUT : bl_0_109 
* INOUT : br_0_109 
* INOUT : bl_0_110 
* INOUT : br_0_110 
* INOUT : bl_0_111 
* INOUT : br_0_111 
* INOUT : bl_0_112 
* INOUT : br_0_112 
* INOUT : bl_0_113 
* INOUT : br_0_113 
* INOUT : bl_0_114 
* INOUT : br_0_114 
* INOUT : bl_0_115 
* INOUT : br_0_115 
* INOUT : bl_0_116 
* INOUT : br_0_116 
* INOUT : bl_0_117 
* INOUT : br_0_117 
* INOUT : bl_0_118 
* INOUT : br_0_118 
* INOUT : bl_0_119 
* INOUT : br_0_119 
* INOUT : bl_0_120 
* INOUT : br_0_120 
* INOUT : bl_0_121 
* INOUT : br_0_121 
* INOUT : bl_0_122 
* INOUT : br_0_122 
* INOUT : bl_0_123 
* INOUT : br_0_123 
* INOUT : bl_0_124 
* INOUT : br_0_124 
* INOUT : bl_0_125 
* INOUT : br_0_125 
* INOUT : bl_0_126 
* INOUT : br_0_126 
* INOUT : bl_0_127 
* INOUT : br_0_127 
* INOUT : bl_0_128 
* INOUT : br_0_128 
* INOUT : bl_0_129 
* INOUT : br_0_129 
* INOUT : bl_0_130 
* INOUT : br_0_130 
* INOUT : bl_0_131 
* INOUT : br_0_131 
* INOUT : bl_0_132 
* INOUT : br_0_132 
* INOUT : bl_0_133 
* INOUT : br_0_133 
* INOUT : bl_0_134 
* INOUT : br_0_134 
* INOUT : bl_0_135 
* INOUT : br_0_135 
* INOUT : bl_0_136 
* INOUT : br_0_136 
* INOUT : bl_0_137 
* INOUT : br_0_137 
* INOUT : bl_0_138 
* INOUT : br_0_138 
* INOUT : bl_0_139 
* INOUT : br_0_139 
* INOUT : bl_0_140 
* INOUT : br_0_140 
* INOUT : bl_0_141 
* INOUT : br_0_141 
* INOUT : bl_0_142 
* INOUT : br_0_142 
* INOUT : bl_0_143 
* INOUT : br_0_143 
* INOUT : bl_0_144 
* INOUT : br_0_144 
* INOUT : bl_0_145 
* INOUT : br_0_145 
* INOUT : bl_0_146 
* INOUT : br_0_146 
* INOUT : bl_0_147 
* INOUT : br_0_147 
* INOUT : bl_0_148 
* INOUT : br_0_148 
* INOUT : bl_0_149 
* INOUT : br_0_149 
* INOUT : bl_0_150 
* INOUT : br_0_150 
* INOUT : bl_0_151 
* INOUT : br_0_151 
* INOUT : bl_0_152 
* INOUT : br_0_152 
* INOUT : bl_0_153 
* INOUT : br_0_153 
* INOUT : bl_0_154 
* INOUT : br_0_154 
* INOUT : bl_0_155 
* INOUT : br_0_155 
* INOUT : bl_0_156 
* INOUT : br_0_156 
* INOUT : bl_0_157 
* INOUT : br_0_157 
* INOUT : bl_0_158 
* INOUT : br_0_158 
* INOUT : bl_0_159 
* INOUT : br_0_159 
* INOUT : bl_0_160 
* INOUT : br_0_160 
* INOUT : bl_0_161 
* INOUT : br_0_161 
* INOUT : bl_0_162 
* INOUT : br_0_162 
* INOUT : bl_0_163 
* INOUT : br_0_163 
* INOUT : bl_0_164 
* INOUT : br_0_164 
* INOUT : bl_0_165 
* INOUT : br_0_165 
* INOUT : bl_0_166 
* INOUT : br_0_166 
* INOUT : bl_0_167 
* INOUT : br_0_167 
* INOUT : bl_0_168 
* INOUT : br_0_168 
* INOUT : bl_0_169 
* INOUT : br_0_169 
* INOUT : bl_0_170 
* INOUT : br_0_170 
* INOUT : bl_0_171 
* INOUT : br_0_171 
* INOUT : bl_0_172 
* INOUT : br_0_172 
* INOUT : bl_0_173 
* INOUT : br_0_173 
* INOUT : bl_0_174 
* INOUT : br_0_174 
* INOUT : bl_0_175 
* INOUT : br_0_175 
* INPUT : wl_0_0 
* INPUT : wl_0_1 
* INPUT : wl_0_2 
* INPUT : wl_0_3 
* INPUT : wl_0_4 
* INPUT : wl_0_5 
* INPUT : wl_0_6 
* INPUT : wl_0_7 
* INPUT : wl_0_8 
* INPUT : wl_0_9 
* INPUT : wl_0_10 
* INPUT : wl_0_11 
* INPUT : wl_0_12 
* INPUT : wl_0_13 
* INPUT : wl_0_14 
* INPUT : wl_0_15 
* INPUT : wl_0_16 
* INPUT : wl_0_17 
* INPUT : wl_0_18 
* INPUT : wl_0_19 
* INPUT : wl_0_20 
* INPUT : wl_0_21 
* INPUT : wl_0_22 
* INPUT : wl_0_23 
* INPUT : wl_0_24 
* INPUT : wl_0_25 
* INPUT : wl_0_26 
* INPUT : wl_0_27 
* INPUT : wl_0_28 
* INPUT : wl_0_29 
* INPUT : wl_0_30 
* INPUT : wl_0_31 
* INPUT : wl_0_32 
* INPUT : wl_0_33 
* INPUT : wl_0_34 
* INPUT : wl_0_35 
* INPUT : wl_0_36 
* INPUT : wl_0_37 
* INPUT : wl_0_38 
* INPUT : wl_0_39 
* INPUT : wl_0_40 
* INPUT : wl_0_41 
* INPUT : wl_0_42 
* INPUT : wl_0_43 
* INPUT : wl_0_44 
* INPUT : wl_0_45 
* INPUT : wl_0_46 
* INPUT : wl_0_47 
* INPUT : wl_0_48 
* INPUT : wl_0_49 
* INPUT : wl_0_50 
* INPUT : wl_0_51 
* INPUT : wl_0_52 
* INPUT : wl_0_53 
* INPUT : wl_0_54 
* INPUT : wl_0_55 
* INPUT : wl_0_56 
* INPUT : wl_0_57 
* INPUT : wl_0_58 
* INPUT : wl_0_59 
* INPUT : wl_0_60 
* INPUT : wl_0_61 
* INPUT : wl_0_62 
* INPUT : wl_0_63 
* POWER : vdd 
* GROUND: gnd 
* rows: 64 cols: 176
Xbit_r0_c0
+ bl_0_0 br_0_0 wl_0_0 vdd gnd
+ cell_1rw
Xbit_r1_c0
+ bl_0_0 br_0_0 wl_0_1 vdd gnd
+ cell_1rw
Xbit_r2_c0
+ bl_0_0 br_0_0 wl_0_2 vdd gnd
+ cell_1rw
Xbit_r3_c0
+ bl_0_0 br_0_0 wl_0_3 vdd gnd
+ cell_1rw
Xbit_r4_c0
+ bl_0_0 br_0_0 wl_0_4 vdd gnd
+ cell_1rw
Xbit_r5_c0
+ bl_0_0 br_0_0 wl_0_5 vdd gnd
+ cell_1rw
Xbit_r6_c0
+ bl_0_0 br_0_0 wl_0_6 vdd gnd
+ cell_1rw
Xbit_r7_c0
+ bl_0_0 br_0_0 wl_0_7 vdd gnd
+ cell_1rw
Xbit_r8_c0
+ bl_0_0 br_0_0 wl_0_8 vdd gnd
+ cell_1rw
Xbit_r9_c0
+ bl_0_0 br_0_0 wl_0_9 vdd gnd
+ cell_1rw
Xbit_r10_c0
+ bl_0_0 br_0_0 wl_0_10 vdd gnd
+ cell_1rw
Xbit_r11_c0
+ bl_0_0 br_0_0 wl_0_11 vdd gnd
+ cell_1rw
Xbit_r12_c0
+ bl_0_0 br_0_0 wl_0_12 vdd gnd
+ cell_1rw
Xbit_r13_c0
+ bl_0_0 br_0_0 wl_0_13 vdd gnd
+ cell_1rw
Xbit_r14_c0
+ bl_0_0 br_0_0 wl_0_14 vdd gnd
+ cell_1rw
Xbit_r15_c0
+ bl_0_0 br_0_0 wl_0_15 vdd gnd
+ cell_1rw
Xbit_r16_c0
+ bl_0_0 br_0_0 wl_0_16 vdd gnd
+ cell_1rw
Xbit_r17_c0
+ bl_0_0 br_0_0 wl_0_17 vdd gnd
+ cell_1rw
Xbit_r18_c0
+ bl_0_0 br_0_0 wl_0_18 vdd gnd
+ cell_1rw
Xbit_r19_c0
+ bl_0_0 br_0_0 wl_0_19 vdd gnd
+ cell_1rw
Xbit_r20_c0
+ bl_0_0 br_0_0 wl_0_20 vdd gnd
+ cell_1rw
Xbit_r21_c0
+ bl_0_0 br_0_0 wl_0_21 vdd gnd
+ cell_1rw
Xbit_r22_c0
+ bl_0_0 br_0_0 wl_0_22 vdd gnd
+ cell_1rw
Xbit_r23_c0
+ bl_0_0 br_0_0 wl_0_23 vdd gnd
+ cell_1rw
Xbit_r24_c0
+ bl_0_0 br_0_0 wl_0_24 vdd gnd
+ cell_1rw
Xbit_r25_c0
+ bl_0_0 br_0_0 wl_0_25 vdd gnd
+ cell_1rw
Xbit_r26_c0
+ bl_0_0 br_0_0 wl_0_26 vdd gnd
+ cell_1rw
Xbit_r27_c0
+ bl_0_0 br_0_0 wl_0_27 vdd gnd
+ cell_1rw
Xbit_r28_c0
+ bl_0_0 br_0_0 wl_0_28 vdd gnd
+ cell_1rw
Xbit_r29_c0
+ bl_0_0 br_0_0 wl_0_29 vdd gnd
+ cell_1rw
Xbit_r30_c0
+ bl_0_0 br_0_0 wl_0_30 vdd gnd
+ cell_1rw
Xbit_r31_c0
+ bl_0_0 br_0_0 wl_0_31 vdd gnd
+ cell_1rw
Xbit_r32_c0
+ bl_0_0 br_0_0 wl_0_32 vdd gnd
+ cell_1rw
Xbit_r33_c0
+ bl_0_0 br_0_0 wl_0_33 vdd gnd
+ cell_1rw
Xbit_r34_c0
+ bl_0_0 br_0_0 wl_0_34 vdd gnd
+ cell_1rw
Xbit_r35_c0
+ bl_0_0 br_0_0 wl_0_35 vdd gnd
+ cell_1rw
Xbit_r36_c0
+ bl_0_0 br_0_0 wl_0_36 vdd gnd
+ cell_1rw
Xbit_r37_c0
+ bl_0_0 br_0_0 wl_0_37 vdd gnd
+ cell_1rw
Xbit_r38_c0
+ bl_0_0 br_0_0 wl_0_38 vdd gnd
+ cell_1rw
Xbit_r39_c0
+ bl_0_0 br_0_0 wl_0_39 vdd gnd
+ cell_1rw
Xbit_r40_c0
+ bl_0_0 br_0_0 wl_0_40 vdd gnd
+ cell_1rw
Xbit_r41_c0
+ bl_0_0 br_0_0 wl_0_41 vdd gnd
+ cell_1rw
Xbit_r42_c0
+ bl_0_0 br_0_0 wl_0_42 vdd gnd
+ cell_1rw
Xbit_r43_c0
+ bl_0_0 br_0_0 wl_0_43 vdd gnd
+ cell_1rw
Xbit_r44_c0
+ bl_0_0 br_0_0 wl_0_44 vdd gnd
+ cell_1rw
Xbit_r45_c0
+ bl_0_0 br_0_0 wl_0_45 vdd gnd
+ cell_1rw
Xbit_r46_c0
+ bl_0_0 br_0_0 wl_0_46 vdd gnd
+ cell_1rw
Xbit_r47_c0
+ bl_0_0 br_0_0 wl_0_47 vdd gnd
+ cell_1rw
Xbit_r48_c0
+ bl_0_0 br_0_0 wl_0_48 vdd gnd
+ cell_1rw
Xbit_r49_c0
+ bl_0_0 br_0_0 wl_0_49 vdd gnd
+ cell_1rw
Xbit_r50_c0
+ bl_0_0 br_0_0 wl_0_50 vdd gnd
+ cell_1rw
Xbit_r51_c0
+ bl_0_0 br_0_0 wl_0_51 vdd gnd
+ cell_1rw
Xbit_r52_c0
+ bl_0_0 br_0_0 wl_0_52 vdd gnd
+ cell_1rw
Xbit_r53_c0
+ bl_0_0 br_0_0 wl_0_53 vdd gnd
+ cell_1rw
Xbit_r54_c0
+ bl_0_0 br_0_0 wl_0_54 vdd gnd
+ cell_1rw
Xbit_r55_c0
+ bl_0_0 br_0_0 wl_0_55 vdd gnd
+ cell_1rw
Xbit_r56_c0
+ bl_0_0 br_0_0 wl_0_56 vdd gnd
+ cell_1rw
Xbit_r57_c0
+ bl_0_0 br_0_0 wl_0_57 vdd gnd
+ cell_1rw
Xbit_r58_c0
+ bl_0_0 br_0_0 wl_0_58 vdd gnd
+ cell_1rw
Xbit_r59_c0
+ bl_0_0 br_0_0 wl_0_59 vdd gnd
+ cell_1rw
Xbit_r60_c0
+ bl_0_0 br_0_0 wl_0_60 vdd gnd
+ cell_1rw
Xbit_r61_c0
+ bl_0_0 br_0_0 wl_0_61 vdd gnd
+ cell_1rw
Xbit_r62_c0
+ bl_0_0 br_0_0 wl_0_62 vdd gnd
+ cell_1rw
Xbit_r63_c0
+ bl_0_0 br_0_0 wl_0_63 vdd gnd
+ cell_1rw
Xbit_r0_c1
+ bl_0_1 br_0_1 wl_0_0 vdd gnd
+ cell_1rw
Xbit_r1_c1
+ bl_0_1 br_0_1 wl_0_1 vdd gnd
+ cell_1rw
Xbit_r2_c1
+ bl_0_1 br_0_1 wl_0_2 vdd gnd
+ cell_1rw
Xbit_r3_c1
+ bl_0_1 br_0_1 wl_0_3 vdd gnd
+ cell_1rw
Xbit_r4_c1
+ bl_0_1 br_0_1 wl_0_4 vdd gnd
+ cell_1rw
Xbit_r5_c1
+ bl_0_1 br_0_1 wl_0_5 vdd gnd
+ cell_1rw
Xbit_r6_c1
+ bl_0_1 br_0_1 wl_0_6 vdd gnd
+ cell_1rw
Xbit_r7_c1
+ bl_0_1 br_0_1 wl_0_7 vdd gnd
+ cell_1rw
Xbit_r8_c1
+ bl_0_1 br_0_1 wl_0_8 vdd gnd
+ cell_1rw
Xbit_r9_c1
+ bl_0_1 br_0_1 wl_0_9 vdd gnd
+ cell_1rw
Xbit_r10_c1
+ bl_0_1 br_0_1 wl_0_10 vdd gnd
+ cell_1rw
Xbit_r11_c1
+ bl_0_1 br_0_1 wl_0_11 vdd gnd
+ cell_1rw
Xbit_r12_c1
+ bl_0_1 br_0_1 wl_0_12 vdd gnd
+ cell_1rw
Xbit_r13_c1
+ bl_0_1 br_0_1 wl_0_13 vdd gnd
+ cell_1rw
Xbit_r14_c1
+ bl_0_1 br_0_1 wl_0_14 vdd gnd
+ cell_1rw
Xbit_r15_c1
+ bl_0_1 br_0_1 wl_0_15 vdd gnd
+ cell_1rw
Xbit_r16_c1
+ bl_0_1 br_0_1 wl_0_16 vdd gnd
+ cell_1rw
Xbit_r17_c1
+ bl_0_1 br_0_1 wl_0_17 vdd gnd
+ cell_1rw
Xbit_r18_c1
+ bl_0_1 br_0_1 wl_0_18 vdd gnd
+ cell_1rw
Xbit_r19_c1
+ bl_0_1 br_0_1 wl_0_19 vdd gnd
+ cell_1rw
Xbit_r20_c1
+ bl_0_1 br_0_1 wl_0_20 vdd gnd
+ cell_1rw
Xbit_r21_c1
+ bl_0_1 br_0_1 wl_0_21 vdd gnd
+ cell_1rw
Xbit_r22_c1
+ bl_0_1 br_0_1 wl_0_22 vdd gnd
+ cell_1rw
Xbit_r23_c1
+ bl_0_1 br_0_1 wl_0_23 vdd gnd
+ cell_1rw
Xbit_r24_c1
+ bl_0_1 br_0_1 wl_0_24 vdd gnd
+ cell_1rw
Xbit_r25_c1
+ bl_0_1 br_0_1 wl_0_25 vdd gnd
+ cell_1rw
Xbit_r26_c1
+ bl_0_1 br_0_1 wl_0_26 vdd gnd
+ cell_1rw
Xbit_r27_c1
+ bl_0_1 br_0_1 wl_0_27 vdd gnd
+ cell_1rw
Xbit_r28_c1
+ bl_0_1 br_0_1 wl_0_28 vdd gnd
+ cell_1rw
Xbit_r29_c1
+ bl_0_1 br_0_1 wl_0_29 vdd gnd
+ cell_1rw
Xbit_r30_c1
+ bl_0_1 br_0_1 wl_0_30 vdd gnd
+ cell_1rw
Xbit_r31_c1
+ bl_0_1 br_0_1 wl_0_31 vdd gnd
+ cell_1rw
Xbit_r32_c1
+ bl_0_1 br_0_1 wl_0_32 vdd gnd
+ cell_1rw
Xbit_r33_c1
+ bl_0_1 br_0_1 wl_0_33 vdd gnd
+ cell_1rw
Xbit_r34_c1
+ bl_0_1 br_0_1 wl_0_34 vdd gnd
+ cell_1rw
Xbit_r35_c1
+ bl_0_1 br_0_1 wl_0_35 vdd gnd
+ cell_1rw
Xbit_r36_c1
+ bl_0_1 br_0_1 wl_0_36 vdd gnd
+ cell_1rw
Xbit_r37_c1
+ bl_0_1 br_0_1 wl_0_37 vdd gnd
+ cell_1rw
Xbit_r38_c1
+ bl_0_1 br_0_1 wl_0_38 vdd gnd
+ cell_1rw
Xbit_r39_c1
+ bl_0_1 br_0_1 wl_0_39 vdd gnd
+ cell_1rw
Xbit_r40_c1
+ bl_0_1 br_0_1 wl_0_40 vdd gnd
+ cell_1rw
Xbit_r41_c1
+ bl_0_1 br_0_1 wl_0_41 vdd gnd
+ cell_1rw
Xbit_r42_c1
+ bl_0_1 br_0_1 wl_0_42 vdd gnd
+ cell_1rw
Xbit_r43_c1
+ bl_0_1 br_0_1 wl_0_43 vdd gnd
+ cell_1rw
Xbit_r44_c1
+ bl_0_1 br_0_1 wl_0_44 vdd gnd
+ cell_1rw
Xbit_r45_c1
+ bl_0_1 br_0_1 wl_0_45 vdd gnd
+ cell_1rw
Xbit_r46_c1
+ bl_0_1 br_0_1 wl_0_46 vdd gnd
+ cell_1rw
Xbit_r47_c1
+ bl_0_1 br_0_1 wl_0_47 vdd gnd
+ cell_1rw
Xbit_r48_c1
+ bl_0_1 br_0_1 wl_0_48 vdd gnd
+ cell_1rw
Xbit_r49_c1
+ bl_0_1 br_0_1 wl_0_49 vdd gnd
+ cell_1rw
Xbit_r50_c1
+ bl_0_1 br_0_1 wl_0_50 vdd gnd
+ cell_1rw
Xbit_r51_c1
+ bl_0_1 br_0_1 wl_0_51 vdd gnd
+ cell_1rw
Xbit_r52_c1
+ bl_0_1 br_0_1 wl_0_52 vdd gnd
+ cell_1rw
Xbit_r53_c1
+ bl_0_1 br_0_1 wl_0_53 vdd gnd
+ cell_1rw
Xbit_r54_c1
+ bl_0_1 br_0_1 wl_0_54 vdd gnd
+ cell_1rw
Xbit_r55_c1
+ bl_0_1 br_0_1 wl_0_55 vdd gnd
+ cell_1rw
Xbit_r56_c1
+ bl_0_1 br_0_1 wl_0_56 vdd gnd
+ cell_1rw
Xbit_r57_c1
+ bl_0_1 br_0_1 wl_0_57 vdd gnd
+ cell_1rw
Xbit_r58_c1
+ bl_0_1 br_0_1 wl_0_58 vdd gnd
+ cell_1rw
Xbit_r59_c1
+ bl_0_1 br_0_1 wl_0_59 vdd gnd
+ cell_1rw
Xbit_r60_c1
+ bl_0_1 br_0_1 wl_0_60 vdd gnd
+ cell_1rw
Xbit_r61_c1
+ bl_0_1 br_0_1 wl_0_61 vdd gnd
+ cell_1rw
Xbit_r62_c1
+ bl_0_1 br_0_1 wl_0_62 vdd gnd
+ cell_1rw
Xbit_r63_c1
+ bl_0_1 br_0_1 wl_0_63 vdd gnd
+ cell_1rw
Xbit_r0_c2
+ bl_0_2 br_0_2 wl_0_0 vdd gnd
+ cell_1rw
Xbit_r1_c2
+ bl_0_2 br_0_2 wl_0_1 vdd gnd
+ cell_1rw
Xbit_r2_c2
+ bl_0_2 br_0_2 wl_0_2 vdd gnd
+ cell_1rw
Xbit_r3_c2
+ bl_0_2 br_0_2 wl_0_3 vdd gnd
+ cell_1rw
Xbit_r4_c2
+ bl_0_2 br_0_2 wl_0_4 vdd gnd
+ cell_1rw
Xbit_r5_c2
+ bl_0_2 br_0_2 wl_0_5 vdd gnd
+ cell_1rw
Xbit_r6_c2
+ bl_0_2 br_0_2 wl_0_6 vdd gnd
+ cell_1rw
Xbit_r7_c2
+ bl_0_2 br_0_2 wl_0_7 vdd gnd
+ cell_1rw
Xbit_r8_c2
+ bl_0_2 br_0_2 wl_0_8 vdd gnd
+ cell_1rw
Xbit_r9_c2
+ bl_0_2 br_0_2 wl_0_9 vdd gnd
+ cell_1rw
Xbit_r10_c2
+ bl_0_2 br_0_2 wl_0_10 vdd gnd
+ cell_1rw
Xbit_r11_c2
+ bl_0_2 br_0_2 wl_0_11 vdd gnd
+ cell_1rw
Xbit_r12_c2
+ bl_0_2 br_0_2 wl_0_12 vdd gnd
+ cell_1rw
Xbit_r13_c2
+ bl_0_2 br_0_2 wl_0_13 vdd gnd
+ cell_1rw
Xbit_r14_c2
+ bl_0_2 br_0_2 wl_0_14 vdd gnd
+ cell_1rw
Xbit_r15_c2
+ bl_0_2 br_0_2 wl_0_15 vdd gnd
+ cell_1rw
Xbit_r16_c2
+ bl_0_2 br_0_2 wl_0_16 vdd gnd
+ cell_1rw
Xbit_r17_c2
+ bl_0_2 br_0_2 wl_0_17 vdd gnd
+ cell_1rw
Xbit_r18_c2
+ bl_0_2 br_0_2 wl_0_18 vdd gnd
+ cell_1rw
Xbit_r19_c2
+ bl_0_2 br_0_2 wl_0_19 vdd gnd
+ cell_1rw
Xbit_r20_c2
+ bl_0_2 br_0_2 wl_0_20 vdd gnd
+ cell_1rw
Xbit_r21_c2
+ bl_0_2 br_0_2 wl_0_21 vdd gnd
+ cell_1rw
Xbit_r22_c2
+ bl_0_2 br_0_2 wl_0_22 vdd gnd
+ cell_1rw
Xbit_r23_c2
+ bl_0_2 br_0_2 wl_0_23 vdd gnd
+ cell_1rw
Xbit_r24_c2
+ bl_0_2 br_0_2 wl_0_24 vdd gnd
+ cell_1rw
Xbit_r25_c2
+ bl_0_2 br_0_2 wl_0_25 vdd gnd
+ cell_1rw
Xbit_r26_c2
+ bl_0_2 br_0_2 wl_0_26 vdd gnd
+ cell_1rw
Xbit_r27_c2
+ bl_0_2 br_0_2 wl_0_27 vdd gnd
+ cell_1rw
Xbit_r28_c2
+ bl_0_2 br_0_2 wl_0_28 vdd gnd
+ cell_1rw
Xbit_r29_c2
+ bl_0_2 br_0_2 wl_0_29 vdd gnd
+ cell_1rw
Xbit_r30_c2
+ bl_0_2 br_0_2 wl_0_30 vdd gnd
+ cell_1rw
Xbit_r31_c2
+ bl_0_2 br_0_2 wl_0_31 vdd gnd
+ cell_1rw
Xbit_r32_c2
+ bl_0_2 br_0_2 wl_0_32 vdd gnd
+ cell_1rw
Xbit_r33_c2
+ bl_0_2 br_0_2 wl_0_33 vdd gnd
+ cell_1rw
Xbit_r34_c2
+ bl_0_2 br_0_2 wl_0_34 vdd gnd
+ cell_1rw
Xbit_r35_c2
+ bl_0_2 br_0_2 wl_0_35 vdd gnd
+ cell_1rw
Xbit_r36_c2
+ bl_0_2 br_0_2 wl_0_36 vdd gnd
+ cell_1rw
Xbit_r37_c2
+ bl_0_2 br_0_2 wl_0_37 vdd gnd
+ cell_1rw
Xbit_r38_c2
+ bl_0_2 br_0_2 wl_0_38 vdd gnd
+ cell_1rw
Xbit_r39_c2
+ bl_0_2 br_0_2 wl_0_39 vdd gnd
+ cell_1rw
Xbit_r40_c2
+ bl_0_2 br_0_2 wl_0_40 vdd gnd
+ cell_1rw
Xbit_r41_c2
+ bl_0_2 br_0_2 wl_0_41 vdd gnd
+ cell_1rw
Xbit_r42_c2
+ bl_0_2 br_0_2 wl_0_42 vdd gnd
+ cell_1rw
Xbit_r43_c2
+ bl_0_2 br_0_2 wl_0_43 vdd gnd
+ cell_1rw
Xbit_r44_c2
+ bl_0_2 br_0_2 wl_0_44 vdd gnd
+ cell_1rw
Xbit_r45_c2
+ bl_0_2 br_0_2 wl_0_45 vdd gnd
+ cell_1rw
Xbit_r46_c2
+ bl_0_2 br_0_2 wl_0_46 vdd gnd
+ cell_1rw
Xbit_r47_c2
+ bl_0_2 br_0_2 wl_0_47 vdd gnd
+ cell_1rw
Xbit_r48_c2
+ bl_0_2 br_0_2 wl_0_48 vdd gnd
+ cell_1rw
Xbit_r49_c2
+ bl_0_2 br_0_2 wl_0_49 vdd gnd
+ cell_1rw
Xbit_r50_c2
+ bl_0_2 br_0_2 wl_0_50 vdd gnd
+ cell_1rw
Xbit_r51_c2
+ bl_0_2 br_0_2 wl_0_51 vdd gnd
+ cell_1rw
Xbit_r52_c2
+ bl_0_2 br_0_2 wl_0_52 vdd gnd
+ cell_1rw
Xbit_r53_c2
+ bl_0_2 br_0_2 wl_0_53 vdd gnd
+ cell_1rw
Xbit_r54_c2
+ bl_0_2 br_0_2 wl_0_54 vdd gnd
+ cell_1rw
Xbit_r55_c2
+ bl_0_2 br_0_2 wl_0_55 vdd gnd
+ cell_1rw
Xbit_r56_c2
+ bl_0_2 br_0_2 wl_0_56 vdd gnd
+ cell_1rw
Xbit_r57_c2
+ bl_0_2 br_0_2 wl_0_57 vdd gnd
+ cell_1rw
Xbit_r58_c2
+ bl_0_2 br_0_2 wl_0_58 vdd gnd
+ cell_1rw
Xbit_r59_c2
+ bl_0_2 br_0_2 wl_0_59 vdd gnd
+ cell_1rw
Xbit_r60_c2
+ bl_0_2 br_0_2 wl_0_60 vdd gnd
+ cell_1rw
Xbit_r61_c2
+ bl_0_2 br_0_2 wl_0_61 vdd gnd
+ cell_1rw
Xbit_r62_c2
+ bl_0_2 br_0_2 wl_0_62 vdd gnd
+ cell_1rw
Xbit_r63_c2
+ bl_0_2 br_0_2 wl_0_63 vdd gnd
+ cell_1rw
Xbit_r0_c3
+ bl_0_3 br_0_3 wl_0_0 vdd gnd
+ cell_1rw
Xbit_r1_c3
+ bl_0_3 br_0_3 wl_0_1 vdd gnd
+ cell_1rw
Xbit_r2_c3
+ bl_0_3 br_0_3 wl_0_2 vdd gnd
+ cell_1rw
Xbit_r3_c3
+ bl_0_3 br_0_3 wl_0_3 vdd gnd
+ cell_1rw
Xbit_r4_c3
+ bl_0_3 br_0_3 wl_0_4 vdd gnd
+ cell_1rw
Xbit_r5_c3
+ bl_0_3 br_0_3 wl_0_5 vdd gnd
+ cell_1rw
Xbit_r6_c3
+ bl_0_3 br_0_3 wl_0_6 vdd gnd
+ cell_1rw
Xbit_r7_c3
+ bl_0_3 br_0_3 wl_0_7 vdd gnd
+ cell_1rw
Xbit_r8_c3
+ bl_0_3 br_0_3 wl_0_8 vdd gnd
+ cell_1rw
Xbit_r9_c3
+ bl_0_3 br_0_3 wl_0_9 vdd gnd
+ cell_1rw
Xbit_r10_c3
+ bl_0_3 br_0_3 wl_0_10 vdd gnd
+ cell_1rw
Xbit_r11_c3
+ bl_0_3 br_0_3 wl_0_11 vdd gnd
+ cell_1rw
Xbit_r12_c3
+ bl_0_3 br_0_3 wl_0_12 vdd gnd
+ cell_1rw
Xbit_r13_c3
+ bl_0_3 br_0_3 wl_0_13 vdd gnd
+ cell_1rw
Xbit_r14_c3
+ bl_0_3 br_0_3 wl_0_14 vdd gnd
+ cell_1rw
Xbit_r15_c3
+ bl_0_3 br_0_3 wl_0_15 vdd gnd
+ cell_1rw
Xbit_r16_c3
+ bl_0_3 br_0_3 wl_0_16 vdd gnd
+ cell_1rw
Xbit_r17_c3
+ bl_0_3 br_0_3 wl_0_17 vdd gnd
+ cell_1rw
Xbit_r18_c3
+ bl_0_3 br_0_3 wl_0_18 vdd gnd
+ cell_1rw
Xbit_r19_c3
+ bl_0_3 br_0_3 wl_0_19 vdd gnd
+ cell_1rw
Xbit_r20_c3