**************************************************
* OpenRAM generated memory.
* Words: 20
* Data bits: 64
* Banks: 1
* Column mux: 1:1
* Trimmed: False
* LVS: True
**************************************************

.SUBCKT dummy_cell_1rw bl br wl vdd gnd
* Inverter 1
MM0 Q_bar Q gnd gnd NMOS_VTG W=205.00n L=50n
MM4 Q_bar Q vdd vdd PMOS_VTG W=90n L=50n

* Inverer 2
MM1 Q Q_bar gnd gnd NMOS_VTG W=205.00n L=50n
MM5 Q Q_bar vdd vdd PMOS_VTG W=90n L=50n

* Access transistors
MM3 bl_noconn wl Q gnd NMOS_VTG W=135.00n L=50n
MM2 br_noconn wl Q_bar gnd NMOS_VTG W=135.00n L=50n
.ENDS dummy_cell_1rw


.SUBCKT freepdk45_sram_1rw0r_20x64_dummy_array_2
+ bl_0_0 br_0_0 wl_0_0 wl_0_1 wl_0_2 wl_0_3 wl_0_4 wl_0_5 wl_0_6 wl_0_7
+ wl_0_8 wl_0_9 wl_0_10 wl_0_11 wl_0_12 wl_0_13 wl_0_14 wl_0_15 wl_0_16
+ wl_0_17 wl_0_18 wl_0_19 wl_0_20 wl_0_21 wl_0_22 vdd gnd
* INOUT : bl_0_0 
* INOUT : br_0_0 
* INPUT : wl_0_0 
* INPUT : wl_0_1 
* INPUT : wl_0_2 
* INPUT : wl_0_3 
* INPUT : wl_0_4 
* INPUT : wl_0_5 
* INPUT : wl_0_6 
* INPUT : wl_0_7 
* INPUT : wl_0_8 
* INPUT : wl_0_9 
* INPUT : wl_0_10 
* INPUT : wl_0_11 
* INPUT : wl_0_12 
* INPUT : wl_0_13 
* INPUT : wl_0_14 
* INPUT : wl_0_15 
* INPUT : wl_0_16 
* INPUT : wl_0_17 
* INPUT : wl_0_18 
* INPUT : wl_0_19 
* INPUT : wl_0_20 
* INPUT : wl_0_21 
* INPUT : wl_0_22 
* POWER : vdd 
* GROUND: gnd 
Xbit_r0_c0
+ bl_0_0 br_0_0 wl_0_0 vdd gnd
+ dummy_cell_1rw
Xbit_r1_c0
+ bl_0_0 br_0_0 wl_0_1 vdd gnd
+ dummy_cell_1rw
Xbit_r2_c0
+ bl_0_0 br_0_0 wl_0_2 vdd gnd
+ dummy_cell_1rw
Xbit_r3_c0
+ bl_0_0 br_0_0 wl_0_3 vdd gnd
+ dummy_cell_1rw
Xbit_r4_c0
+ bl_0_0 br_0_0 wl_0_4 vdd gnd
+ dummy_cell_1rw
Xbit_r5_c0
+ bl_0_0 br_0_0 wl_0_5 vdd gnd
+ dummy_cell_1rw
Xbit_r6_c0
+ bl_0_0 br_0_0 wl_0_6 vdd gnd
+ dummy_cell_1rw
Xbit_r7_c0
+ bl_0_0 br_0_0 wl_0_7 vdd gnd
+ dummy_cell_1rw
Xbit_r8_c0
+ bl_0_0 br_0_0 wl_0_8 vdd gnd
+ dummy_cell_1rw
Xbit_r9_c0
+ bl_0_0 br_0_0 wl_0_9 vdd gnd
+ dummy_cell_1rw
Xbit_r10_c0
+ bl_0_0 br_0_0 wl_0_10 vdd gnd
+ dummy_cell_1rw
Xbit_r11_c0
+ bl_0_0 br_0_0 wl_0_11 vdd gnd
+ dummy_cell_1rw
Xbit_r12_c0
+ bl_0_0 br_0_0 wl_0_12 vdd gnd
+ dummy_cell_1rw
Xbit_r13_c0
+ bl_0_0 br_0_0 wl_0_13 vdd gnd
+ dummy_cell_1rw
Xbit_r14_c0
+ bl_0_0 br_0_0 wl_0_14 vdd gnd
+ dummy_cell_1rw
Xbit_r15_c0
+ bl_0_0 br_0_0 wl_0_15 vdd gnd
+ dummy_cell_1rw
Xbit_r16_c0
+ bl_0_0 br_0_0 wl_0_16 vdd gnd
+ dummy_cell_1rw
Xbit_r17_c0
+ bl_0_0 br_0_0 wl_0_17 vdd gnd
+ dummy_cell_1rw
Xbit_r18_c0
+ bl_0_0 br_0_0 wl_0_18 vdd gnd
+ dummy_cell_1rw
Xbit_r19_c0
+ bl_0_0 br_0_0 wl_0_19 vdd gnd
+ dummy_cell_1rw
Xbit_r20_c0
+ bl_0_0 br_0_0 wl_0_20 vdd gnd
+ dummy_cell_1rw
Xbit_r21_c0
+ bl_0_0 br_0_0 wl_0_21 vdd gnd
+ dummy_cell_1rw
Xbit_r22_c0
+ bl_0_0 br_0_0 wl_0_22 vdd gnd
+ dummy_cell_1rw
.ENDS freepdk45_sram_1rw0r_20x64_dummy_array_2

.SUBCKT freepdk45_sram_1rw0r_20x64_dummy_array_3
+ bl_0_0 br_0_0 wl_0_0 wl_0_1 wl_0_2 wl_0_3 wl_0_4 wl_0_5 wl_0_6 wl_0_7
+ wl_0_8 wl_0_9 wl_0_10 wl_0_11 wl_0_12 wl_0_13 wl_0_14 wl_0_15 wl_0_16
+ wl_0_17 wl_0_18 wl_0_19 wl_0_20 wl_0_21 wl_0_22 vdd gnd
* INOUT : bl_0_0 
* INOUT : br_0_0 
* INPUT : wl_0_0 
* INPUT : wl_0_1 
* INPUT : wl_0_2 
* INPUT : wl_0_3 
* INPUT : wl_0_4 
* INPUT : wl_0_5 
* INPUT : wl_0_6 
* INPUT : wl_0_7 
* INPUT : wl_0_8 
* INPUT : wl_0_9 
* INPUT : wl_0_10 
* INPUT : wl_0_11 
* INPUT : wl_0_12 
* INPUT : wl_0_13 
* INPUT : wl_0_14 
* INPUT : wl_0_15 
* INPUT : wl_0_16 
* INPUT : wl_0_17 
* INPUT : wl_0_18 
* INPUT : wl_0_19 
* INPUT : wl_0_20 
* INPUT : wl_0_21 
* INPUT : wl_0_22 
* POWER : vdd 
* GROUND: gnd 
Xbit_r0_c0
+ bl_0_0 br_0_0 wl_0_0 vdd gnd
+ dummy_cell_1rw
Xbit_r1_c0
+ bl_0_0 br_0_0 wl_0_1 vdd gnd
+ dummy_cell_1rw
Xbit_r2_c0
+ bl_0_0 br_0_0 wl_0_2 vdd gnd
+ dummy_cell_1rw
Xbit_r3_c0
+ bl_0_0 br_0_0 wl_0_3 vdd gnd
+ dummy_cell_1rw
Xbit_r4_c0
+ bl_0_0 br_0_0 wl_0_4 vdd gnd
+ dummy_cell_1rw
Xbit_r5_c0
+ bl_0_0 br_0_0 wl_0_5 vdd gnd
+ dummy_cell_1rw
Xbit_r6_c0
+ bl_0_0 br_0_0 wl_0_6 vdd gnd
+ dummy_cell_1rw
Xbit_r7_c0
+ bl_0_0 br_0_0 wl_0_7 vdd gnd
+ dummy_cell_1rw
Xbit_r8_c0
+ bl_0_0 br_0_0 wl_0_8 vdd gnd
+ dummy_cell_1rw
Xbit_r9_c0
+ bl_0_0 br_0_0 wl_0_9 vdd gnd
+ dummy_cell_1rw
Xbit_r10_c0
+ bl_0_0 br_0_0 wl_0_10 vdd gnd
+ dummy_cell_1rw
Xbit_r11_c0
+ bl_0_0 br_0_0 wl_0_11 vdd gnd
+ dummy_cell_1rw
Xbit_r12_c0
+ bl_0_0 br_0_0 wl_0_12 vdd gnd
+ dummy_cell_1rw
Xbit_r13_c0
+ bl_0_0 br_0_0 wl_0_13 vdd gnd
+ dummy_cell_1rw
Xbit_r14_c0
+ bl_0_0 br_0_0 wl_0_14 vdd gnd
+ dummy_cell_1rw
Xbit_r15_c0
+ bl_0_0 br_0_0 wl_0_15 vdd gnd
+ dummy_cell_1rw
Xbit_r16_c0
+ bl_0_0 br_0_0 wl_0_16 vdd gnd
+ dummy_cell_1rw
Xbit_r17_c0
+ bl_0_0 br_0_0 wl_0_17 vdd gnd
+ dummy_cell_1rw
Xbit_r18_c0
+ bl_0_0 br_0_0 wl_0_18 vdd gnd
+ dummy_cell_1rw
Xbit_r19_c0
+ bl_0_0 br_0_0 wl_0_19 vdd gnd
+ dummy_cell_1rw
Xbit_r20_c0
+ bl_0_0 br_0_0 wl_0_20 vdd gnd
+ dummy_cell_1rw
Xbit_r21_c0
+ bl_0_0 br_0_0 wl_0_21 vdd gnd
+ dummy_cell_1rw
Xbit_r22_c0
+ bl_0_0 br_0_0 wl_0_22 vdd gnd
+ dummy_cell_1rw
.ENDS freepdk45_sram_1rw0r_20x64_dummy_array_3

.SUBCKT freepdk45_sram_1rw0r_20x64_dummy_array
+ bl_0_0 br_0_0 bl_0_1 br_0_1 bl_0_2 br_0_2 bl_0_3 br_0_3 bl_0_4 br_0_4
+ bl_0_5 br_0_5 bl_0_6 br_0_6 bl_0_7 br_0_7 bl_0_8 br_0_8 bl_0_9 br_0_9
+ bl_0_10 br_0_10 bl_0_11 br_0_11 bl_0_12 br_0_12 bl_0_13 br_0_13
+ bl_0_14 br_0_14 bl_0_15 br_0_15 bl_0_16 br_0_16 bl_0_17 br_0_17
+ bl_0_18 br_0_18 bl_0_19 br_0_19 bl_0_20 br_0_20 bl_0_21 br_0_21
+ bl_0_22 br_0_22 bl_0_23 br_0_23 bl_0_24 br_0_24 bl_0_25 br_0_25
+ bl_0_26 br_0_26 bl_0_27 br_0_27 bl_0_28 br_0_28 bl_0_29 br_0_29
+ bl_0_30 br_0_30 bl_0_31 br_0_31 bl_0_32 br_0_32 bl_0_33 br_0_33
+ bl_0_34 br_0_34 bl_0_35 br_0_35 bl_0_36 br_0_36 bl_0_37 br_0_37
+ bl_0_38 br_0_38 bl_0_39 br_0_39 bl_0_40 br_0_40 bl_0_41 br_0_41
+ bl_0_42 br_0_42 bl_0_43 br_0_43 bl_0_44 br_0_44 bl_0_45 br_0_45
+ bl_0_46 br_0_46 bl_0_47 br_0_47 bl_0_48 br_0_48 bl_0_49 br_0_49
+ bl_0_50 br_0_50 bl_0_51 br_0_51 bl_0_52 br_0_52 bl_0_53 br_0_53
+ bl_0_54 br_0_54 bl_0_55 br_0_55 bl_0_56 br_0_56 bl_0_57 br_0_57
+ bl_0_58 br_0_58 bl_0_59 br_0_59 bl_0_60 br_0_60 bl_0_61 br_0_61
+ bl_0_62 br_0_62 bl_0_63 br_0_63 wl_0_0 vdd gnd
* INOUT : bl_0_0 
* INOUT : br_0_0 
* INOUT : bl_0_1 
* INOUT : br_0_1 
* INOUT : bl_0_2 
* INOUT : br_0_2 
* INOUT : bl_0_3 
* INOUT : br_0_3 
* INOUT : bl_0_4 
* INOUT : br_0_4 
* INOUT : bl_0_5 
* INOUT : br_0_5 
* INOUT : bl_0_6 
* INOUT : br_0_6 
* INOUT : bl_0_7 
* INOUT : br_0_7 
* INOUT : bl_0_8 
* INOUT : br_0_8 
* INOUT : bl_0_9 
* INOUT : br_0_9 
* INOUT : bl_0_10 
* INOUT : br_0_10 
* INOUT : bl_0_11 
* INOUT : br_0_11 
* INOUT : bl_0_12 
* INOUT : br_0_12 
* INOUT : bl_0_13 
* INOUT : br_0_13 
* INOUT : bl_0_14 
* INOUT : br_0_14 
* INOUT : bl_0_15 
* INOUT : br_0_15 
* INOUT : bl_0_16 
* INOUT : br_0_16 
* INOUT : bl_0_17 
* INOUT : br_0_17 
* INOUT : bl_0_18 
* INOUT : br_0_18 
* INOUT : bl_0_19 
* INOUT : br_0_19 
* INOUT : bl_0_20 
* INOUT : br_0_20 
* INOUT : bl_0_21 
* INOUT : br_0_21 
* INOUT : bl_0_22 
* INOUT : br_0_22 
* INOUT : bl_0_23 
* INOUT : br_0_23 
* INOUT : bl_0_24 
* INOUT : br_0_24 
* INOUT : bl_0_25 
* INOUT : br_0_25 
* INOUT : bl_0_26 
* INOUT : br_0_26 
* INOUT : bl_0_27 
* INOUT : br_0_27 
* INOUT : bl_0_28 
* INOUT : br_0_28 
* INOUT : bl_0_29 
* INOUT : br_0_29 
* INOUT : bl_0_30 
* INOUT : br_0_30 
* INOUT : bl_0_31 
* INOUT : br_0_31 
* INOUT : bl_0_32 
* INOUT : br_0_32 
* INOUT : bl_0_33 
* INOUT : br_0_33 
* INOUT : bl_0_34 
* INOUT : br_0_34 
* INOUT : bl_0_35 
* INOUT : br_0_35 
* INOUT : bl_0_36 
* INOUT : br_0_36 
* INOUT : bl_0_37 
* INOUT : br_0_37 
* INOUT : bl_0_38 
* INOUT : br_0_38 
* INOUT : bl_0_39 
* INOUT : br_0_39 
* INOUT : bl_0_40 
* INOUT : br_0_40 
* INOUT : bl_0_41 
* INOUT : br_0_41 
* INOUT : bl_0_42 
* INOUT : br_0_42 
* INOUT : bl_0_43 
* INOUT : br_0_43 
* INOUT : bl_0_44 
* INOUT : br_0_44 
* INOUT : bl_0_45 
* INOUT : br_0_45 
* INOUT : bl_0_46 
* INOUT : br_0_46 
* INOUT : bl_0_47 
* INOUT : br_0_47 
* INOUT : bl_0_48 
* INOUT : br_0_48 
* INOUT : bl_0_49 
* INOUT : br_0_49 
* INOUT : bl_0_50 
* INOUT : br_0_50 
* INOUT : bl_0_51 
* INOUT : br_0_51 
* INOUT : bl_0_52 
* INOUT : br_0_52 
* INOUT : bl_0_53 
* INOUT : br_0_53 
* INOUT : bl_0_54 
* INOUT : br_0_54 
* INOUT : bl_0_55 
* INOUT : br_0_55 
* INOUT : bl_0_56 
* INOUT : br_0_56 
* INOUT : bl_0_57 
* INOUT : br_0_57 
* INOUT : bl_0_58 
* INOUT : br_0_58 
* INOUT : bl_0_59 
* INOUT : br_0_59 
* INOUT : bl_0_60 
* INOUT : br_0_60 
* INOUT : bl_0_61 
* INOUT : br_0_61 
* INOUT : bl_0_62 
* INOUT : br_0_62 
* INOUT : bl_0_63 
* INOUT : br_0_63 
* INPUT : wl_0_0 
* POWER : vdd 
* GROUND: gnd 
Xbit_r0_c0
+ bl_0_0 br_0_0 wl_0_0 vdd gnd
+ dummy_cell_1rw
Xbit_r0_c1
+ bl_0_1 br_0_1 wl_0_0 vdd gnd
+ dummy_cell_1rw
Xbit_r0_c2
+ bl_0_2 br_0_2 wl_0_0 vdd gnd
+ dummy_cell_1rw
Xbit_r0_c3
+ bl_0_3 br_0_3 wl_0_0 vdd gnd
+ dummy_cell_1rw
Xbit_r0_c4
+ bl_0_4 br_0_4 wl_0_0 vdd gnd
+ dummy_cell_1rw
Xbit_r0_c5
+ bl_0_5 br_0_5 wl_0_0 vdd gnd
+ dummy_cell_1rw
Xbit_r0_c6
+ bl_0_6 br_0_6 wl_0_0 vdd gnd
+ dummy_cell_1rw
Xbit_r0_c7
+ bl_0_7 br_0_7 wl_0_0 vdd gnd
+ dummy_cell_1rw
Xbit_r0_c8
+ bl_0_8 br_0_8 wl_0_0 vdd gnd
+ dummy_cell_1rw
Xbit_r0_c9
+ bl_0_9 br_0_9 wl_0_0 vdd gnd
+ dummy_cell_1rw
Xbit_r0_c10
+ bl_0_10 br_0_10 wl_0_0 vdd gnd
+ dummy_cell_1rw
Xbit_r0_c11
+ bl_0_11 br_0_11 wl_0_0 vdd gnd
+ dummy_cell_1rw
Xbit_r0_c12
+ bl_0_12 br_0_12 wl_0_0 vdd gnd
+ dummy_cell_1rw
Xbit_r0_c13
+ bl_0_13 br_0_13 wl_0_0 vdd gnd
+ dummy_cell_1rw
Xbit_r0_c14
+ bl_0_14 br_0_14 wl_0_0 vdd gnd
+ dummy_cell_1rw
Xbit_r0_c15
+ bl_0_15 br_0_15 wl_0_0 vdd gnd
+ dummy_cell_1rw
Xbit_r0_c16
+ bl_0_16 br_0_16 wl_0_0 vdd gnd
+ dummy_cell_1rw
Xbit_r0_c17
+ bl_0_17 br_0_17 wl_0_0 vdd gnd
+ dummy_cell_1rw
Xbit_r0_c18
+ bl_0_18 br_0_18 wl_0_0 vdd gnd
+ dummy_cell_1rw
Xbit_r0_c19
+ bl_0_19 br_0_19 wl_0_0 vdd gnd
+ dummy_cell_1rw
Xbit_r0_c20
+ bl_0_20 br_0_20 wl_0_0 vdd gnd
+ dummy_cell_1rw
Xbit_r0_c21
+ bl_0_21 br_0_21 wl_0_0 vdd gnd
+ dummy_cell_1rw
Xbit_r0_c22
+ bl_0_22 br_0_22 wl_0_0 vdd gnd
+ dummy_cell_1rw
Xbit_r0_c23
+ bl_0_23 br_0_23 wl_0_0 vdd gnd
+ dummy_cell_1rw
Xbit_r0_c24
+ bl_0_24 br_0_24 wl_0_0 vdd gnd
+ dummy_cell_1rw
Xbit_r0_c25
+ bl_0_25 br_0_25 wl_0_0 vdd gnd
+ dummy_cell_1rw
Xbit_r0_c26
+ bl_0_26 br_0_26 wl_0_0 vdd gnd
+ dummy_cell_1rw
Xbit_r0_c27
+ bl_0_27 br_0_27 wl_0_0 vdd gnd
+ dummy_cell_1rw
Xbit_r0_c28
+ bl_0_28 br_0_28 wl_0_0 vdd gnd
+ dummy_cell_1rw
Xbit_r0_c29
+ bl_0_29 br_0_29 wl_0_0 vdd gnd
+ dummy_cell_1rw
Xbit_r0_c30
+ bl_0_30 br_0_30 wl_0_0 vdd gnd
+ dummy_cell_1rw
Xbit_r0_c31
+ bl_0_31 br_0_31 wl_0_0 vdd gnd
+ dummy_cell_1rw
Xbit_r0_c32
+ bl_0_32 br_0_32 wl_0_0 vdd gnd
+ dummy_cell_1rw
Xbit_r0_c33
+ bl_0_33 br_0_33 wl_0_0 vdd gnd
+ dummy_cell_1rw
Xbit_r0_c34
+ bl_0_34 br_0_34 wl_0_0 vdd gnd
+ dummy_cell_1rw
Xbit_r0_c35
+ bl_0_35 br_0_35 wl_0_0 vdd gnd
+ dummy_cell_1rw
Xbit_r0_c36
+ bl_0_36 br_0_36 wl_0_0 vdd gnd
+ dummy_cell_1rw
Xbit_r0_c37
+ bl_0_37 br_0_37 wl_0_0 vdd gnd
+ dummy_cell_1rw
Xbit_r0_c38
+ bl_0_38 br_0_38 wl_0_0 vdd gnd
+ dummy_cell_1rw
Xbit_r0_c39
+ bl_0_39 br_0_39 wl_0_0 vdd gnd
+ dummy_cell_1rw
Xbit_r0_c40
+ bl_0_40 br_0_40 wl_0_0 vdd gnd
+ dummy_cell_1rw
Xbit_r0_c41
+ bl_0_41 br_0_41 wl_0_0 vdd gnd
+ dummy_cell_1rw
Xbit_r0_c42
+ bl_0_42 br_0_42 wl_0_0 vdd gnd
+ dummy_cell_1rw
Xbit_r0_c43
+ bl_0_43 br_0_43 wl_0_0 vdd gnd
+ dummy_cell_1rw
Xbit_r0_c44
+ bl_0_44 br_0_44 wl_0_0 vdd gnd
+ dummy_cell_1rw
Xbit_r0_c45
+ bl_0_45 br_0_45 wl_0_0 vdd gnd
+ dummy_cell_1rw
Xbit_r0_c46
+ bl_0_46 br_0_46 wl_0_0 vdd gnd
+ dummy_cell_1rw
Xbit_r0_c47
+ bl_0_47 br_0_47 wl_0_0 vdd gnd
+ dummy_cell_1rw
Xbit_r0_c48
+ bl_0_48 br_0_48 wl_0_0 vdd gnd
+ dummy_cell_1rw
Xbit_r0_c49
+ bl_0_49 br_0_49 wl_0_0 vdd gnd
+ dummy_cell_1rw
Xbit_r0_c50
+ bl_0_50 br_0_50 wl_0_0 vdd gnd
+ dummy_cell_1rw
Xbit_r0_c51
+ bl_0_51 br_0_51 wl_0_0 vdd gnd
+ dummy_cell_1rw
Xbit_r0_c52
+ bl_0_52 br_0_52 wl_0_0 vdd gnd
+ dummy_cell_1rw
Xbit_r0_c53
+ bl_0_53 br_0_53 wl_0_0 vdd gnd
+ dummy_cell_1rw
Xbit_r0_c54
+ bl_0_54 br_0_54 wl_0_0 vdd gnd
+ dummy_cell_1rw
Xbit_r0_c55
+ bl_0_55 br_0_55 wl_0_0 vdd gnd
+ dummy_cell_1rw
Xbit_r0_c56
+ bl_0_56 br_0_56 wl_0_0 vdd gnd
+ dummy_cell_1rw
Xbit_r0_c57
+ bl_0_57 br_0_57 wl_0_0 vdd gnd
+ dummy_cell_1rw
Xbit_r0_c58
+ bl_0_58 br_0_58 wl_0_0 vdd gnd
+ dummy_cell_1rw
Xbit_r0_c59
+ bl_0_59 br_0_59 wl_0_0 vdd gnd
+ dummy_cell_1rw
Xbit_r0_c60
+ bl_0_60 br_0_60 wl_0_0 vdd gnd
+ dummy_cell_1rw
Xbit_r0_c61
+ bl_0_61 br_0_61 wl_0_0 vdd gnd
+ dummy_cell_1rw
Xbit_r0_c62
+ bl_0_62 br_0_62 wl_0_0 vdd gnd
+ dummy_cell_1rw
Xbit_r0_c63
+ bl_0_63 br_0_63 wl_0_0 vdd gnd
+ dummy_cell_1rw
.ENDS freepdk45_sram_1rw0r_20x64_dummy_array

.SUBCKT replica_cell_1rw bl br wl vdd gnd
* Inverter 1
MM0 vdd Q gnd gnd NMOS_VTG W=205.00n L=50n
MM4 vdd Q vdd vdd PMOS_VTG W=90n L=50n

* Inverer 2
MM1 Q vdd gnd gnd NMOS_VTG W=205.00n L=50n
MM5 Q vdd vdd vdd PMOS_VTG W=90n L=50n

* Access transistors
MM3 bl wl Q gnd NMOS_VTG W=135.00n L=50n
MM2 br wl vdd gnd NMOS_VTG W=135.00n L=50n
.ENDS cell_1rw


.SUBCKT freepdk45_sram_1rw0r_20x64_replica_column
+ bl_0_0 br_0_0 wl_0_0 wl_0_1 wl_0_2 wl_0_3 wl_0_4 wl_0_5 wl_0_6 wl_0_7
+ wl_0_8 wl_0_9 wl_0_10 wl_0_11 wl_0_12 wl_0_13 wl_0_14 wl_0_15 wl_0_16
+ wl_0_17 wl_0_18 wl_0_19 wl_0_20 vdd gnd
* OUTPUT: bl_0_0 
* OUTPUT: br_0_0 
* INPUT : wl_0_0 
* INPUT : wl_0_1 
* INPUT : wl_0_2 
* INPUT : wl_0_3 
* INPUT : wl_0_4 
* INPUT : wl_0_5 
* INPUT : wl_0_6 
* INPUT : wl_0_7 
* INPUT : wl_0_8 
* INPUT : wl_0_9 
* INPUT : wl_0_10 
* INPUT : wl_0_11 
* INPUT : wl_0_12 
* INPUT : wl_0_13 
* INPUT : wl_0_14 
* INPUT : wl_0_15 
* INPUT : wl_0_16 
* INPUT : wl_0_17 
* INPUT : wl_0_18 
* INPUT : wl_0_19 
* INPUT : wl_0_20 
* POWER : vdd 
* GROUND: gnd 
Xrbc_0
+ bl_0_0 br_0_0 wl_0_0 vdd gnd
+ replica_cell_1rw
Xrbc_1
+ bl_0_0 br_0_0 wl_0_1 vdd gnd
+ replica_cell_1rw
Xrbc_2
+ bl_0_0 br_0_0 wl_0_2 vdd gnd
+ replica_cell_1rw
Xrbc_3
+ bl_0_0 br_0_0 wl_0_3 vdd gnd
+ replica_cell_1rw
Xrbc_4
+ bl_0_0 br_0_0 wl_0_4 vdd gnd
+ replica_cell_1rw
Xrbc_5
+ bl_0_0 br_0_0 wl_0_5 vdd gnd
+ replica_cell_1rw
Xrbc_6
+ bl_0_0 br_0_0 wl_0_6 vdd gnd
+ replica_cell_1rw
Xrbc_7
+ bl_0_0 br_0_0 wl_0_7 vdd gnd
+ replica_cell_1rw
Xrbc_8
+ bl_0_0 br_0_0 wl_0_8 vdd gnd
+ replica_cell_1rw
Xrbc_9
+ bl_0_0 br_0_0 wl_0_9 vdd gnd
+ replica_cell_1rw
Xrbc_10
+ bl_0_0 br_0_0 wl_0_10 vdd gnd
+ replica_cell_1rw
Xrbc_11
+ bl_0_0 br_0_0 wl_0_11 vdd gnd
+ replica_cell_1rw
Xrbc_12
+ bl_0_0 br_0_0 wl_0_12 vdd gnd
+ replica_cell_1rw
Xrbc_13
+ bl_0_0 br_0_0 wl_0_13 vdd gnd
+ replica_cell_1rw
Xrbc_14
+ bl_0_0 br_0_0 wl_0_14 vdd gnd
+ replica_cell_1rw
Xrbc_15
+ bl_0_0 br_0_0 wl_0_15 vdd gnd
+ replica_cell_1rw
Xrbc_16
+ bl_0_0 br_0_0 wl_0_16 vdd gnd
+ replica_cell_1rw
Xrbc_17
+ bl_0_0 br_0_0 wl_0_17 vdd gnd
+ replica_cell_1rw
Xrbc_18
+ bl_0_0 br_0_0 wl_0_18 vdd gnd
+ replica_cell_1rw
Xrbc_19
+ bl_0_0 br_0_0 wl_0_19 vdd gnd
+ replica_cell_1rw
Xrbc_20
+ bl_0_0 br_0_0 wl_0_20 vdd gnd
+ replica_cell_1rw
.ENDS freepdk45_sram_1rw0r_20x64_replica_column

.SUBCKT cell_1rw bl br wl vdd gnd
* Inverter 1
MM0 Q_bar Q gnd gnd NMOS_VTG W=205.00n L=50n
MM4 Q_bar Q vdd vdd PMOS_VTG W=90n L=50n

* Inverer 2
MM1 Q Q_bar gnd gnd NMOS_VTG W=205.00n L=50n
MM5 Q Q_bar vdd vdd PMOS_VTG W=90n L=50n

* Access transistors
MM3 bl wl Q gnd NMOS_VTG W=135.00n L=50n
MM2 br wl Q_bar gnd NMOS_VTG W=135.00n L=50n
.ENDS cell_1rw


.SUBCKT freepdk45_sram_1rw0r_20x64_bitcell_array
+ bl_0_0 br_0_0 bl_0_1 br_0_1 bl_0_2 br_0_2 bl_0_3 br_0_3 bl_0_4 br_0_4
+ bl_0_5 br_0_5 bl_0_6 br_0_6 bl_0_7 br_0_7 bl_0_8 br_0_8 bl_0_9 br_0_9
+ bl_0_10 br_0_10 bl_0_11 br_0_11 bl_0_12 br_0_12 bl_0_13 br_0_13
+ bl_0_14 br_0_14 bl_0_15 br_0_15 bl_0_16 br_0_16 bl_0_17 br_0_17
+ bl_0_18 br_0_18 bl_0_19 br_0_19 bl_0_20 br_0_20 bl_0_21 br_0_21
+ bl_0_22 br_0_22 bl_0_23 br_0_23 bl_0_24 br_0_24 bl_0_25 br_0_25
+ bl_0_26 br_0_26 bl_0_27 br_0_27 bl_0_28 br_0_28 bl_0_29 br_0_29
+ bl_0_30 br_0_30 bl_0_31 br_0_31 bl_0_32 br_0_32 bl_0_33 br_0_33
+ bl_0_34 br_0_34 bl_0_35 br_0_35 bl_0_36 br_0_36 bl_0_37 br_0_37
+ bl_0_38 br_0_38 bl_0_39 br_0_39 bl_0_40 br_0_40 bl_0_41 br_0_41
+ bl_0_42 br_0_42 bl_0_43 br_0_43 bl_0_44 br_0_44 bl_0_45 br_0_45
+ bl_0_46 br_0_46 bl_0_47 br_0_47 bl_0_48 br_0_48 bl_0_49 br_0_49
+ bl_0_50 br_0_50 bl_0_51 br_0_51 bl_0_52 br_0_52 bl_0_53 br_0_53
+ bl_0_54 br_0_54 bl_0_55 br_0_55 bl_0_56 br_0_56 bl_0_57 br_0_57
+ bl_0_58 br_0_58 bl_0_59 br_0_59 bl_0_60 br_0_60 bl_0_61 br_0_61
+ bl_0_62 br_0_62 bl_0_63 br_0_63 wl_0_0 wl_0_1 wl_0_2 wl_0_3 wl_0_4
+ wl_0_5 wl_0_6 wl_0_7 wl_0_8 wl_0_9 wl_0_10 wl_0_11 wl_0_12 wl_0_13
+ wl_0_14 wl_0_15 wl_0_16 wl_0_17 wl_0_18 wl_0_19 vdd gnd
* INOUT : bl_0_0 
* INOUT : br_0_0 
* INOUT : bl_0_1 
* INOUT : br_0_1 
* INOUT : bl_0_2 
* INOUT : br_0_2 
* INOUT : bl_0_3 
* INOUT : br_0_3 
* INOUT : bl_0_4 
* INOUT : br_0_4 
* INOUT : bl_0_5 
* INOUT : br_0_5 
* INOUT : bl_0_6 
* INOUT : br_0_6 
* INOUT : bl_0_7 
* INOUT : br_0_7 
* INOUT : bl_0_8 
* INOUT : br_0_8 
* INOUT : bl_0_9 
* INOUT : br_0_9 
* INOUT : bl_0_10 
* INOUT : br_0_10 
* INOUT : bl_0_11 
* INOUT : br_0_11 
* INOUT : bl_0_12 
* INOUT : br_0_12 
* INOUT : bl_0_13 
* INOUT : br_0_13 
* INOUT : bl_0_14 
* INOUT : br_0_14 
* INOUT : bl_0_15 
* INOUT : br_0_15 
* INOUT : bl_0_16 
* INOUT : br_0_16 
* INOUT : bl_0_17 
* INOUT : br_0_17 
* INOUT : bl_0_18 
* INOUT : br_0_18 
* INOUT : bl_0_19 
* INOUT : br_0_19 
* INOUT : bl_0_20 
* INOUT : br_0_20 
* INOUT : bl_0_21 
* INOUT : br_0_21 
* INOUT : bl_0_22 
* INOUT : br_0_22 
* INOUT : bl_0_23 
* INOUT : br_0_23 
* INOUT : bl_0_24 
* INOUT : br_0_24 
* INOUT : bl_0_25 
* INOUT : br_0_25 
* INOUT : bl_0_26 
* INOUT : br_0_26 
* INOUT : bl_0_27 
* INOUT : br_0_27 
* INOUT : bl_0_28 
* INOUT : br_0_28 
* INOUT : bl_0_29 
* INOUT : br_0_29 
* INOUT : bl_0_30 
* INOUT : br_0_30 
* INOUT : bl_0_31 
* INOUT : br_0_31 
* INOUT : bl_0_32 
* INOUT : br_0_32 
* INOUT : bl_0_33 
* INOUT : br_0_33 
* INOUT : bl_0_34 
* INOUT : br_0_34 
* INOUT : bl_0_35 
* INOUT : br_0_35 
* INOUT : bl_0_36 
* INOUT : br_0_36 
* INOUT : bl_0_37 
* INOUT : br_0_37 
* INOUT : bl_0_38 
* INOUT : br_0_38 
* INOUT : bl_0_39 
* INOUT : br_0_39 
* INOUT : bl_0_40 
* INOUT : br_0_40 
* INOUT : bl_0_41 
* INOUT : br_0_41 
* INOUT : bl_0_42 
* INOUT : br_0_42 
* INOUT : bl_0_43 
* INOUT : br_0_43 
* INOUT : bl_0_44 
* INOUT : br_0_44 
* INOUT : bl_0_45 
* INOUT : br_0_45 
* INOUT : bl_0_46 
* INOUT : br_0_46 
* INOUT : bl_0_47 
* INOUT : br_0_47 
* INOUT : bl_0_48 
* INOUT : br_0_48 
* INOUT : bl_0_49 
* INOUT : br_0_49 
* INOUT : bl_0_50 
* INOUT : br_0_50 
* INOUT : bl_0_51 
* INOUT : br_0_51 
* INOUT : bl_0_52 
* INOUT : br_0_52 
* INOUT : bl_0_53 
* INOUT : br_0_53 
* INOUT : bl_0_54 
* INOUT : br_0_54 
* INOUT : bl_0_55 
* INOUT : br_0_55 
* INOUT : bl_0_56 
* INOUT : br_0_56 
* INOUT : bl_0_57 
* INOUT : br_0_57 
* INOUT : bl_0_58 
* INOUT : br_0_58 
* INOUT : bl_0_59 
* INOUT : br_0_59 
* INOUT : bl_0_60 
* INOUT : br_0_60 
* INOUT : bl_0_61 
* INOUT : br_0_61 
* INOUT : bl_0_62 
* INOUT : br_0_62 
* INOUT : bl_0_63 
* INOUT : br_0_63 
* INPUT : wl_0_0 
* INPUT : wl_0_1 
* INPUT : wl_0_2 
* INPUT : wl_0_3 
* INPUT : wl_0_4 
* INPUT : wl_0_5 
* INPUT : wl_0_6 
* INPUT : wl_0_7 
* INPUT : wl_0_8 
* INPUT : wl_0_9 
* INPUT : wl_0_10 
* INPUT : wl_0_11 
* INPUT : wl_0_12 
* INPUT : wl_0_13 
* INPUT : wl_0_14 
* INPUT : wl_0_15 
* INPUT : wl_0_16 
* INPUT : wl_0_17 
* INPUT : wl_0_18 
* INPUT : wl_0_19 
* POWER : vdd 
* GROUND: gnd 
* rows: 20 cols: 64
Xbit_r0_c0
+ bl_0_0 br_0_0 wl_0_0 vdd gnd
+ cell_1rw
Xbit_r1_c0
+ bl_0_0 br_0_0 wl_0_1 vdd gnd
+ cell_1rw
Xbit_r2_c0
+ bl_0_0 br_0_0 wl_0_2 vdd gnd
+ cell_1rw
Xbit_r3_c0
+ bl_0_0 br_0_0 wl_0_3 vdd gnd
+ cell_1rw
Xbit_r4_c0
+ bl_0_0 br_0_0 wl_0_4 vdd gnd
+ cell_1rw
Xbit_r5_c0
+ bl_0_0 br_0_0 wl_0_5 vdd gnd
+ cell_1rw
Xbit_r6_c0
+ bl_0_0 br_0_0 wl_0_6 vdd gnd
+ cell_1rw
Xbit_r7_c0
+ bl_0_0 br_0_0 wl_0_7 vdd gnd
+ cell_1rw
Xbit_r8_c0
+ bl_0_0 br_0_0 wl_0_8 vdd gnd
+ cell_1rw
Xbit_r9_c0
+ bl_0_0 br_0_0 wl_0_9 vdd gnd
+ cell_1rw
Xbit_r10_c0
+ bl_0_0 br_0_0 wl_0_10 vdd gnd
+ cell_1rw
Xbit_r11_c0
+ bl_0_0 br_0_0 wl_0_11 vdd gnd
+ cell_1rw
Xbit_r12_c0
+ bl_0_0 br_0_0 wl_0_12 vdd gnd
+ cell_1rw
Xbit_r13_c0
+ bl_0_0 br_0_0 wl_0_13 vdd gnd
+ cell_1rw
Xbit_r14_c0
+ bl_0_0 br_0_0 wl_0_14 vdd gnd
+ cell_1rw
Xbit_r15_c0
+ bl_0_0 br_0_0 wl_0_15 vdd gnd
+ cell_1rw
Xbit_r16_c0
+ bl_0_0 br_0_0 wl_0_16 vdd gnd
+ cell_1rw
Xbit_r17_c0
+ bl_0_0 br_0_0 wl_0_17 vdd gnd
+ cell_1rw
Xbit_r18_c0
+ bl_0_0 br_0_0 wl_0_18 vdd gnd
+ cell_1rw
Xbit_r19_c0
+ bl_0_0 br_0_0 wl_0_19 vdd gnd
+ cell_1rw
Xbit_r0_c1
+ bl_0_1 br_0_1 wl_0_0 vdd gnd
+ cell_1rw
Xbit_r1_c1
+ bl_0_1 br_0_1 wl_0_1 vdd gnd
+ cell_1rw
Xbit_r2_c1
+ bl_0_1 br_0_1 wl_0_2 vdd gnd
+ cell_1rw
Xbit_r3_c1
+ bl_0_1 br_0_1 wl_0_3 vdd gnd
+ cell_1rw
Xbit_r4_c1
+ bl_0_1 br_0_1 wl_0_4 vdd gnd
+ cell_1rw
Xbit_r5_c1
+ bl_0_1 br_0_1 wl_0_5 vdd gnd
+ cell_1rw
Xbit_r6_c1
+ bl_0_1 br_0_1 wl_0_6 vdd gnd
+ cell_1rw
Xbit_r7_c1
+ bl_0_1 br_0_1 wl_0_7 vdd gnd
+ cell_1rw
Xbit_r8_c1
+ bl_0_1 br_0_1 wl_0_8 vdd gnd
+ cell_1rw
Xbit_r9_c1
+ bl_0_1 br_0_1 wl_0_9 vdd gnd
+ cell_1rw
Xbit_r10_c1
+ bl_0_1 br_0_1 wl_0_10 vdd gnd
+ cell_1rw
Xbit_r11_c1
+ bl_0_1 br_0_1 wl_0_11 vdd gnd
+ cell_1rw
Xbit_r12_c1
+ bl_0_1 br_0_1 wl_0_12 vdd gnd
+ cell_1rw
Xbit_r13_c1
+ bl_0_1 br_0_1 wl_0_13 vdd gnd
+ cell_1rw
Xbit_r14_c1
+ bl_0_1 br_0_1 wl_0_14 vdd gnd
+ cell_1rw
Xbit_r15_c1
+ bl_0_1 br_0_1 wl_0_15 vdd gnd
+ cell_1rw
Xbit_r16_c1
+ bl_0_1 br_0_1 wl_0_16 vdd gnd
+ cell_1rw
Xbit_r17_c1
+ bl_0_1 br_0_1 wl_0_17 vdd gnd
+ cell_1rw
Xbit_r18_c1
+ bl_0_1 br_0_1 wl_0_18 vdd gnd
+ cell_1rw
Xbit_r19_c1
+ bl_0_1 br_0_1 wl_0_19 vdd gnd
+ cell_1rw
Xbit_r0_c2
+ bl_0_2 br_0_2 wl_0_0 vdd gnd
+ cell_1rw
Xbit_r1_c2
+ bl_0_2 br_0_2 wl_0_1 vdd gnd
+ cell_1rw
Xbit_r2_c2
+ bl_0_2 br_0_2 wl_0_2 vdd gnd
+ cell_1rw
Xbit_r3_c2
+ bl_0_2 br_0_2 wl_0_3 vdd gnd
+ cell_1rw
Xbit_r4_c2
+ bl_0_2 br_0_2 wl_0_4 vdd gnd
+ cell_1rw
Xbit_r5_c2
+ bl_0_2 br_0_2 wl_0_5 vdd gnd
+ cell_1rw
Xbit_r6_c2
+ bl_0_2 br_0_2 wl_0_6 vdd gnd
+ cell_1rw
Xbit_r7_c2
+ bl_0_2 br_0_2 wl_0_7 vdd gnd
+ cell_1rw
Xbit_r8_c2
+ bl_0_2 br_0_2 wl_0_8 vdd gnd
+ cell_1rw
Xbit_r9_c2
+ bl_0_2 br_0_2 wl_0_9 vdd gnd
+ cell_1rw
Xbit_r10_c2
+ bl_0_2 br_0_2 wl_0_10 vdd gnd
+ cell_1rw
Xbit_r11_c2
+ bl_0_2 br_0_2 wl_0_11 vdd gnd
+ cell_1rw
Xbit_r12_c2
+ bl_0_2 br_0_2 wl_0_12 vdd gnd
+ cell_1rw
Xbit_r13_c2
+ bl_0_2 br_0_2 wl_0_13 vdd gnd
+ cell_1rw
Xbit_r14_c2
+ bl_0_2 br_0_2 wl_0_14 vdd gnd
+ cell_1rw
Xbit_r15_c2
+ bl_0_2 br_0_2 wl_0_15 vdd gnd
+ cell_1rw
Xbit_r16_c2
+ bl_0_2 br_0_2 wl_0_16 vdd gnd
+ cell_1rw
Xbit_r17_c2
+ bl_0_2 br_0_2 wl_0_17 vdd gnd
+ cell_1rw
Xbit_r18_c2
+ bl_0_2 br_0_2 wl_0_18 vdd gnd
+ cell_1rw
Xbit_r19_c2
+ bl_0_2 br_0_2 wl_0_19 vdd gnd
+ cell_1rw
Xbit_r0_c3
+ bl_0_3 br_0_3 wl_0_0 vdd gnd
+ cell_1rw
Xbit_r1_c3
+ bl_0_3 br_0_3 wl_0_1 vdd gnd
+ cell_1rw
Xbit_r2_c3
+ bl_0_3 br_0_3 wl_0_2 vdd gnd
+ cell_1rw
Xbit_r3_c3
+ bl_0_3 br_0_3 wl_0_3 vdd gnd
+ cell_1rw
Xbit_r4_c3
+ bl_0_3 br_0_3 wl_0_4 vdd gnd
+ cell_1rw
Xbit_r5_c3
+ bl_0_3 br_0_3 wl_0_5 vdd gnd
+ cell_1rw
Xbit_r6_c3
+ bl_0_3 br_0_3 wl_0_6 vdd gnd
+ cell_1rw
Xbit_r7_c3
+ bl_0_3 br_0_3 wl_0_7 vdd gnd
+ cell_1rw
Xbit_r8_c3
+ bl_0_3 br_0_3 wl_0_8 vdd gnd
+ cell_1rw
Xbit_r9_c3
+ bl_0_3 br_0_3 wl_0_9 vdd gnd
+ cell_1rw
Xbit_r10_c3
+ bl_0_3 br_0_3 wl_0_10 vdd gnd
+ cell_1rw
Xbit_r11_c3
+ bl_0_3 br_0_3 wl_0_11 vdd gnd
+ cell_1rw
Xbit_r12_c3
+ bl_0_3 br_0_3 wl_0_12 vdd gnd
+ cell_1rw
Xbit_r13_c3
+ bl_0_3 br_0_3 wl_0_13 vdd gnd
+ cell_1rw
Xbit_r14_c3
+ bl_0_3 br_0_3 wl_0_14 vdd gnd
+ cell_1rw
Xbit_r15_c3
+ bl_0_3 br_0_3 wl_0_15 vdd gnd
+ cell_1rw
Xbit_r16_c3
+ bl_0_3 br_0_3 wl_0_16 vdd gnd
+ cell_1rw
Xbit_r17_c3
+ bl_0_3 br_0_3 wl_0_17 vdd gnd
+ cell_1rw
Xbit_r18_c3
+ bl_0_3 br_0_3 wl_0_18 vdd gnd
+ cell_1rw
Xbit_r19_c3
+ bl_0_3 br_0_3 wl_0_19 vdd gnd
+ cell_1rw
Xbit_r0_c4
+ bl_0_4 br_0_4 wl_0_0 vdd gnd
+ cell_1rw
Xbit_r1_c4
+ bl_0_4 br_0_4 wl_0_1 vdd gnd
+ cell_1rw
Xbit_r2_c4
+ bl_0_4 br_0_4 wl_0_2 vdd gnd
+ cell_1rw
Xbit_r3_c4
+ bl_0_4 br_0_4 wl_0_3 vdd gnd
+ cell_1rw
Xbit_r4_c4
+ bl_0_4 br_0_4 wl_0_4 vdd gnd
+ cell_1rw
Xbit_r5_c4
+ bl_0_4 br_0_4 wl_0_5 vdd gnd
+ cell_1rw
Xbit_r6_c4
+ bl_0_4 br_0_4 wl_0_6 vdd gnd
+ cell_1rw
Xbit_r7_c4
+ bl_0_4 br_0_4 wl_0_7 vdd gnd
+ cell_1rw
Xbit_r8_c4
+ bl_0_4 br_0_4 wl_0_8 vdd gnd
+ cell_1rw
Xbit_r9_c4
+ bl_0_4 br_0_4 wl_0_9 vdd gnd
+ cell_1rw
Xbit_r10_c4
+ bl_0_4 br_0_4 wl_0_10 vdd gnd
+ cell_1rw
Xbit_r11_c4
+ bl_0_4 br_0_4 wl_0_11 vdd gnd
+ cell_1rw
Xbit_r12_c4
+ bl_0_4 br_0_4 wl_0_12 vdd gnd
+ cell_1rw
Xbit_r13_c4
+ bl_0_4 br_0_4 wl_0_13 vdd gnd
+ cell_1rw
Xbit_r14_c4
+ bl_0_4 br_0_4 wl_0_14 vdd gnd
+ cell_1rw
Xbit_r15_c4
+ bl_0_4 br_0_4 wl_0_15 vdd gnd
+ cell_1rw
Xbit_r16_c4
+ bl_0_4 br_0_4 wl_0_16 vdd gnd
+ cell_1rw
Xbit_r17_c4
+ bl_0_4 br_0_4 wl_0_17 vdd gnd
+ cell_1rw
Xbit_r18_c4
+ bl_0_4 br_0_4 wl_0_18 vdd gnd
+ cell_1rw
Xbit_r19_c4
+ bl_0_4 br_0_4 wl_0_19 vdd gnd
+ cell_1rw
Xbit_r0_c5
+ bl_0_5 br_0_5 wl_0_0 vdd gnd
+ cell_1rw
Xbit_r1_c5
+ bl_0_5 br_0_5 wl_0_1 vdd gnd
+ cell_1rw
Xbit_r2_c5
+ bl_0_5 br_0_5 wl_0_2 vdd gnd
+ cell_1rw
Xbit_r3_c5
+ bl_0_5 br_0_5 wl_0_3 vdd gnd
+ cell_1rw
Xbit_r4_c5
+ bl_0_5 br_0_5 wl_0_4 vdd gnd
+ cell_1rw
Xbit_r5_c5
+ bl_0_5 br_0_5 wl_0_5 vdd gnd
+ cell_1rw
Xbit_r6_c5
+ bl_0_5 br_0_5 wl_0_6 vdd gnd
+ cell_1rw
Xbit_r7_c5
+ bl_0_5 br_0_5 wl_0_7 vdd gnd
+ cell_1rw
Xbit_r8_c5
+ bl_0_5 br_0_5 wl_0_8 vdd gnd
+ cell_1rw
Xbit_r9_c5
+ bl_0_5 br_0_5 wl_0_9 vdd gnd
+ cell_1rw
Xbit_r10_c5
+ bl_0_5 br_0_5 wl_0_10 vdd gnd
+ cell_1rw
Xbit_r11_c5
+ bl_0_5 br_0_5 wl_0_11 vdd gnd
+ cell_1rw
Xbit_r12_c5
+ bl_0_5 br_0_5 wl_0_12 vdd gnd
+ cell_1rw
Xbit_r13_c5
+ bl_0_5 br_0_5 wl_0_13 vdd gnd
+ cell_1rw
Xbit_r14_c5
+ bl_0_5 br_0_5 wl_0_14 vdd gnd
+ cell_1rw
Xbit_r15_c5
+ bl_0_5 br_0_5 wl_0_15 vdd gnd
+ cell_1rw
Xbit_r16_c5
+ bl_0_5 br_0_5 wl_0_16 vdd gnd
+ cell_1rw
Xbit_r17_c5
+ bl_0_5 br_0_5 wl_0_17 vdd gnd
+ cell_1rw
Xbit_r18_c5
+ bl_0_5 br_0_5 wl_0_18 vdd gnd
+ cell_1rw
Xbit_r19_c5
+ bl_0_5 br_0_5 wl_0_19 vdd gnd
+ cell_1rw
Xbit_r0_c6
+ bl_0_6 br_0_6 wl_0_0 vdd gnd
+ cell_1rw
Xbit_r1_c6
+ bl_0_6 br_0_6 wl_0_1 vdd gnd
+ cell_1rw
Xbit_r2_c6
+ bl_0_6 br_0_6 wl_0_2 vdd gnd
+ cell_1rw
Xbit_r3_c6
+ bl_0_6 br_0_6 wl_0_3 vdd gnd
+ cell_1rw
Xbit_r4_c6
+ bl_0_6 br_0_6 wl_0_4 vdd gnd
+ cell_1rw
Xbit_r5_c6
+ bl_0_6 br_0_6 wl_0_5 vdd gnd
+ cell_1rw
Xbit_r6_c6
+ bl_0_6 br_0_6 wl_0_6 vdd gnd
+ cell_1rw
Xbit_r7_c6
+ bl_0_6 br_0_6 wl_0_7 vdd gnd
+ cell_1rw
Xbit_r8_c6
+ bl_0_6 br_0_6 wl_0_8 vdd gnd
+ cell_1rw
Xbit_r9_c6
+ bl_0_6 br_0_6 wl_0_9 vdd gnd
+ cell_1rw
Xbit_r10_c6
+ bl_0_6 br_0_6 wl_0_10 vdd gnd
+ cell_1rw
Xbit_r11_c6
+ bl_0_6 br_0_6 wl_0_11 vdd gnd
+ cell_1rw
Xbit_r12_c6
+ bl_0_6 br_0_6 wl_0_12 vdd gnd
+ cell_1rw
Xbit_r13_c6
+ bl_0_6 br_0_6 wl_0_13 vdd gnd
+ cell_1rw
Xbit_r14_c6
+ bl_0_6 br_0_6 wl_0_14 vdd gnd
+ cell_1rw
Xbit_r15_c6
+ bl_0_6 br_0_6 wl_0_15 vdd gnd
+ cell_1rw
Xbit_r16_c6
+ bl_0_6 br_0_6 wl_0_16 vdd gnd
+ cell_1rw
Xbit_r17_c6
+ bl_0_6 br_0_6 wl_0_17 vdd gnd
+ cell_1rw
Xbit_r18_c6
+ bl_0_6 br_0_6 wl_0_18 vdd gnd
+ cell_1rw
Xbit_r19_c6
+ bl_0_6 br_0_6 wl_0_19 vdd gnd
+ cell_1rw
Xbit_r0_c7
+ bl_0_7 br_0_7 wl_0_0 vdd gnd
+ cell_1rw
Xbit_r1_c7
+ bl_0_7 br_0_7 wl_0_1 vdd gnd
+ cell_1rw
Xbit_r2_c7
+ bl_0_7 br_0_7 wl_0_2 vdd gnd
+ cell_1rw
Xbit_r3_c7
+ bl_0_7 br_0_7 wl_0_3 vdd gnd
+ cell_1rw
Xbit_r4_c7
+ bl_0_7 br_0_7 wl_0_4 vdd gnd
+ cell_1rw
Xbit_r5_c7
+ bl_0_7 br_0_7 wl_0_5 vdd gnd
+ cell_1rw
Xbit_r6_c7
+ bl_0_7 br_0_7 wl_0_6 vdd gnd
+ cell_1rw
Xbit_r7_c7
+ bl_0_7 br_0_7 wl_0_7 vdd gnd
+ cell_1rw
Xbit_r8_c7
+ bl_0_7 br_0_7 wl_0_8 vdd gnd
+ cell_1rw
Xbit_r9_c7
+ bl_0_7 br_0_7 wl_0_9 vdd gnd
+ cell_1rw
Xbit_r10_c7
+ bl_0_7 br_0_7 wl_0_10 vdd gnd
+ cell_1rw
Xbit_r11_c7
+ bl_0_7 br_0_7 wl_0_11 vdd gnd
+ cell_1rw
Xbit_r12_c7
+ bl_0_7 br_0_7 wl_0_12 vdd gnd
+ cell_1rw
Xbit_r13_c7
+ bl_0_7 br_0_7 wl_0_13 vdd gnd
+ cell_1rw
Xbit_r14_c7
+ bl_0_7 br_0_7 wl_0_14 vdd gnd
+ cell_1rw
Xbit_r15_c7
+ bl_0_7 br_0_7 wl_0_15 vdd gnd
+ cell_1rw
Xbit_r16_c7
+ bl_0_7 br_0_7 wl_0_16 vdd gnd
+ cell_1rw
Xbit_r17_c7
+ bl_0_7 br_0_7 wl_0_17 vdd gnd
+ cell_1rw
Xbit_r18_c7
+ bl_0_7 br_0_7 wl_0_18 vdd gnd
+ cell_1rw
Xbit_r19_c7
+ bl_0_7 br_0_7 wl_0_19 vdd gnd
+ cell_1rw
Xbit_r0_c8
+ bl_0_8 br_0_8 wl_0_0 vdd gnd
+ cell_1rw
Xbit_r1_c8
+ bl_0_8 br_0_8 wl_0_1 vdd gnd
+ cell_1rw
Xbit_r2_c8
+ bl_0_8 br_0_8 wl_0_2 vdd gnd
+ cell_1rw
Xbit_r3_c8
+ bl_0_8 br_0_8 wl_0_3 vdd gnd
+ cell_1rw
Xbit_r4_c8
+ bl_0_8 br_0_8 wl_0_4 vdd gnd
+ cell_1rw
Xbit_r5_c8
+ bl_0_8 br_0_8 wl_0_5 vdd gnd
+ cell_1rw
Xbit_r6_c8
+ bl_0_8 br_0_8 wl_0_6 vdd gnd
+ cell_1rw
Xbit_r7_c8
+ bl_0_8 br_0_8 wl_0_7 vdd gnd
+ cell_1rw
Xbit_r8_c8
+ bl_0_8 br_0_8 wl_0_8 vdd gnd
+ cell_1rw
Xbit_r9_c8
+ bl_0_8 br_0_8 wl_0_9 vdd gnd
+ cell_1rw
Xbit_r10_c8
+ bl_0_8 br_0_8 wl_0_10 vdd gnd
+ cell_1rw
Xbit_r11_c8
+ bl_0_8 br_0_8 wl_0_11 vdd gnd
+ cell_1rw
Xbit_r12_c8
+ bl_0_8 br_0_8 wl_0_12 vdd gnd
+ cell_1rw
Xbit_r13_c8
+ bl_0_8 br_0_8 wl_0_13 vdd gnd
+ cell_1rw
Xbit_r14_c8
+ bl_0_8 br_0_8 wl_0_14 vdd gnd
+ cell_1rw
Xbit_r15_c8
+ bl_0_8 br_0_8 wl_0_15 vdd gnd
+ cell_1rw
Xbit_r16_c8
+ bl_0_8 br_0_8 wl_0_16 vdd gnd
+ cell_1rw
Xbit_r17_c8
+ bl_0_8 br_0_8 wl_0_17 vdd gnd
+ cell_1rw
Xbit_r18_c8
+ bl_0_8 br_0_8 wl_0_18 vdd gnd
+ cell_1rw
Xbit_r19_c8
+ bl_0_8 br_0_8 wl_0_19 vdd gnd
+ cell_1rw
Xbit_r0_c9
+ bl_0_9 br_0_9 wl_0_0 vdd gnd
+ cell_1rw
Xbit_r1_c9
+ bl_0_9 br_0_9 wl_0_1 vdd gnd
+ cell_1rw
Xbit_r2_c9
+ bl_0_9 br_0_9 wl_0_2 vdd gnd
+ cell_1rw
Xbit_r3_c9
+ bl_0_9 br_0_9 wl_0_3 vdd gnd
+ cell_1rw
Xbit_r4_c9
+ bl_0_9 br_0_9 wl_0_4 vdd gnd
+ cell_1rw
Xbit_r5_c9
+ bl_0_9 br_0_9 wl_0_5 vdd gnd
+ cell_1rw
Xbit_r6_c9
+ bl_0_9 br_0_9 wl_0_6 vdd gnd
+ cell_1rw
Xbit_r7_c9
+ bl_0_9 br_0_9 wl_0_7 vdd gnd
+ cell_1rw
Xbit_r8_c9
+ bl_0_9 br_0_9 wl_0_8 vdd gnd
+ cell_1rw
Xbit_r9_c9
+ bl_0_9 br_0_9 wl_0_9 vdd gnd
+ cell_1rw
Xbit_r10_c9
+ bl_0_9 br_0_9 wl_0_10 vdd gnd
+ cell_1rw
Xbit_r11_c9
+ bl_0_9 br_0_9 wl_0_11 vdd gnd
+ cell_1rw
Xbit_r12_c9
+ bl_0_9 br_0_9 wl_0_12 vdd gnd
+ cell_1rw
Xbit_r13_c9
+ bl_0_9 br_0_9 wl_0_13 vdd gnd
+ cell_1rw
Xbit_r14_c9
+ bl_0_9 br_0_9 wl_0_14 vdd gnd
+ cell_1rw
Xbit_r15_c9
+ bl_0_9 br_0_9 wl_0_15 vdd gnd
+ cell_1rw
Xbit_r16_c9
+ bl_0_9 br_0_9 wl_0_16 vdd gnd
+ cell_1rw
Xbit_r17_c9
+ bl_0_9 br_0_9 wl_0_17 vdd gnd
+ cell_1rw
Xbit_r18_c9
+ bl_0_9 br_0_9 wl_0_18 vdd gnd
+ cell_1rw
Xbit_r19_c9